* Design:	OA211x2_ASAP7_75t_R
* Created:	"Sat Aug 18 2018"
* Vendor:	"Mentor Graphics Corporation"
* Program:	"xACT"
* Version:	"v2017.1_34.33"
* Corner Name: typical_27
* Nominal Temperature: 25C
* Circuit Temperature: 27C
* 
* Integrated TICER reduction is not enabled.
* SHORT DELAY THRESHOLD: 2e-15
* Fill Mode: NG
* PEX REDUCE CC ABSOLUTE : 1
* PEX REDUCE CC RELATIVE : 0.01
* Delta transform mode : 344834

*include "OA211x2_ASAP7_75t_R.pex.netlist.pex"
*BEGIN of ".include "OA211x2_ASAP7_75t_R.pex.netlist.pex"


.subckt PM_OA211x2_ASAP7_75t_R%NET19 VSS 2 3 1
c1 1 VSS 0.000979583f
r1 2 1 0.209877 $w=8.1e-08 $l=1.7e-08 $layer=N_src_drn $thickness=1e-09
+ $X=0.1990 $Y=0.0675 $X2=0.2160 $Y2=0.0675
r2 3 1 0.209877 $w=8.1e-08 $l=1.7e-08 $layer=N_src_drn $thickness=1e-09
+ $X=0.2330 $Y=0.0675 $X2=0.2160 $Y2=0.0675
.ends

.subckt PM_OA211x2_ASAP7_75t_R%NET20 VSS 2 3 1
c1 1 VSS 0.000867085f
r1 2 1 0.314815 $w=5.4e-08 $l=1.7e-08 $layer=P_src_drn $thickness=1e-09
+ $X=0.0910 $Y=0.2160 $X2=0.1080 $Y2=0.2160
r2 3 1 0.314815 $w=5.4e-08 $l=1.7e-08 $layer=P_src_drn $thickness=1e-09
+ $X=0.1250 $Y=0.2160 $X2=0.1080 $Y2=0.2160
.ends

.subckt PM_OA211x2_ASAP7_75t_R%noxref_12 VSS 1
c1 1 VSS 0.00582897f
.ends

.subckt PM_OA211x2_ASAP7_75t_R%C VSS 7 3 1 4
c1 1 VSS 0.0058023f
c2 3 VSS 0.0836341f
c3 4 VSS 0.00221901f
r1 8 9 2.3902 $w=1.3e-08 $l=1.03e-08 $layer=M1 $thickness=3.6e-08 $X=0.2430
+ $Y=0.1247 $X2=0.2430 $Y2=0.1350
r2 7 8 0.408082 $w=1.3e-08 $l=1.7e-09 $layer=M1 $thickness=3.6e-08 $X=0.2430
+ $Y=0.1230 $X2=0.2430 $Y2=0.1247
r3 7 4 2.04041 $w=1.3e-08 $l=8.8e-09 $layer=M1 $thickness=3.6e-08 $X=0.2430
+ $Y=0.1230 $X2=0.2430 $Y2=0.1142
r4 3 1 6.51726 $w=1.18568e-07 $l=5e-10 $layer=LIG $thickness=5.19024e-08
+ $X=0.2430 $Y=0.1350 $X2=0.2430 $Y2=0.1345
r5 1 9 19.3796 $w=1.8e-08 $l=1.8e-08 $layer=V0LIG $X=0.2430 $Y=0.1345
+ $X2=0.2430 $Y2=0.1350
.ends

.subckt PM_OA211x2_ASAP7_75t_R%noxref_15 VSS 1
c1 1 VSS 0.0423055f
.ends

.subckt PM_OA211x2_ASAP7_75t_R%noxref_14 VSS 1
c1 1 VSS 0.0423587f
.ends

.subckt PM_OA211x2_ASAP7_75t_R%noxref_13 VSS 1
c1 1 VSS 0.00431077f
.ends

.subckt PM_OA211x2_ASAP7_75t_R%B VSS 8 3 1 4
c1 1 VSS 0.00517945f
c2 3 VSS 0.0352623f
c3 4 VSS 0.00373843f
r1 8 7 0.524677 $w=1.3e-08 $l=2.3e-09 $layer=M1 $thickness=3.6e-08 $X=0.1890
+ $Y=0.1480 $X2=0.1890 $Y2=0.1457
r2 6 7 2.50679 $w=1.3e-08 $l=1.07e-08 $layer=M1 $thickness=3.6e-08 $X=0.1890
+ $Y=0.1350 $X2=0.1890 $Y2=0.1457
r3 4 6 4.43061 $w=1.3e-08 $l=1.9e-08 $layer=M1 $thickness=3.6e-08 $X=0.1890
+ $Y=0.1160 $X2=0.1890 $Y2=0.1350
r4 3 1 6.81262 $w=1.1611e-07 $l=0 $layer=LIG $thickness=5.18095e-08 $X=0.1890
+ $Y=0.1350 $X2=0.1890 $Y2=0.1350
r5 1 6 19.3796 $w=1.8e-08 $l=1.8e-08 $layer=V0LIG $X=0.1890 $Y=0.1350
+ $X2=0.1890 $Y2=0.1350
.ends

.subckt PM_OA211x2_ASAP7_75t_R%Y VSS 23 16 17 30 31 7 9 11 2 1 10 8
c1 1 VSS 0.0101036f
c2 2 VSS 0.0101004f
c3 7 VSS 0.00459344f
c4 8 VSS 0.00455856f
c5 9 VSS 0.0116536f
c6 10 VSS 0.0101461f
c7 11 VSS 0.00750954f
c8 12 VSS 0.00351857f
c9 13 VSS 0.00338116f
r1 31 29 0.0308642 $w=8.1e-08 $l=2.5e-09 $layer=P_src_drn $thickness=1e-09
+ $X=0.3410 $Y=0.2025 $X2=0.3385 $Y2=0.2025
r2 2 29 0.179012 $w=8.1e-08 $l=1.45e-08 $layer=P_src_drn $thickness=1e-09
+ $X=0.3240 $Y=0.2025 $X2=0.3385 $Y2=0.2025
r3 8 2 0.179012 $w=8.1e-08 $l=1.45e-08 $layer=P_src_drn $thickness=1e-09
+ $X=0.3095 $Y=0.2025 $X2=0.3240 $Y2=0.2025
r4 30 8 0.0308642 $w=8.1e-08 $l=2.5e-09 $layer=P_src_drn $thickness=1e-09
+ $X=0.3070 $Y=0.2025 $X2=0.3095 $Y2=0.2025
r5 2 25 19.3796 $w=1.8e-08 $l=1.8e-08 $layer=V0LISD $X=0.3240 $Y=0.2025
+ $X2=0.3240 $Y2=0.2340
r6 25 26 9.44419 $w=1.3e-08 $l=4.05e-08 $layer=M1 $thickness=3.6e-08 $X=0.3240
+ $Y=0.2340 $X2=0.3645 $Y2=0.2340
r7 10 25 3.14806 $w=1.3e-08 $l=1.35e-08 $layer=M1 $thickness=3.6e-08 $X=0.3105
+ $Y=0.2340 $X2=0.3240 $Y2=0.2340
r8 13 24 0.624487 $w=2.20462e-08 $l=9.8e-09 $layer=M1 $thickness=3.6e-08
+ $X=0.4050 $Y=0.2340 $X2=0.4050 $Y2=0.2242
r9 13 26 7.79507 $w=1.41111e-08 $l=4.05e-08 $layer=M1 $thickness=3.6e-08
+ $X=0.4050 $Y=0.2340 $X2=0.3645 $Y2=0.2340
r10 23 24 0.291487 $w=1.3e-08 $l=1.2e-09 $layer=M1 $thickness=3.6e-08 $X=0.4050
+ $Y=0.2230 $X2=0.4050 $Y2=0.2242
r11 23 22 1.92382 $w=1.3e-08 $l=8.3e-09 $layer=M1 $thickness=3.6e-08 $X=0.4050
+ $Y=0.2230 $X2=0.4050 $Y2=0.2147
r12 21 22 18.5969 $w=1.3e-08 $l=7.97e-08 $layer=M1 $thickness=3.6e-08 $X=0.4050
+ $Y=0.1350 $X2=0.4050 $Y2=0.2147
r13 11 12 2.5483 $w=1.79e-08 $l=1.8e-08 $layer=M1 $thickness=3.6e-08 $X=0.4050
+ $Y=0.0540 $X2=0.4050 $Y2=0.0360
r14 11 21 18.8884 $w=1.3e-08 $l=8.1e-08 $layer=M1 $thickness=3.6e-08 $X=0.4050
+ $Y=0.0540 $X2=0.4050 $Y2=0.1350
r15 12 20 7.79507 $w=1.41111e-08 $l=4.05e-08 $layer=M1 $thickness=3.6e-08
+ $X=0.4050 $Y=0.0360 $X2=0.3645 $Y2=0.0360
r16 19 20 9.44419 $w=1.3e-08 $l=4.05e-08 $layer=M1 $thickness=3.6e-08 $X=0.3240
+ $Y=0.0360 $X2=0.3645 $Y2=0.0360
r17 18 19 3.14806 $w=1.3e-08 $l=1.35e-08 $layer=M1 $thickness=3.6e-08 $X=0.3105
+ $Y=0.0360 $X2=0.3240 $Y2=0.0360
r18 9 18 3.38125 $w=1.3e-08 $l=1.45e-08 $layer=M1 $thickness=3.6e-08 $X=0.2960
+ $Y=0.0360 $X2=0.3105 $Y2=0.0360
r19 1 19 19.3796 $w=1.8e-08 $l=1.8e-08 $layer=V0LISD $X=0.3240 $Y=0.0675
+ $X2=0.3240 $Y2=0.0360
r20 17 15 0.0308642 $w=8.1e-08 $l=2.5e-09 $layer=N_src_drn $thickness=1e-09
+ $X=0.3410 $Y=0.0675 $X2=0.3385 $Y2=0.0675
r21 1 15 0.179012 $w=8.1e-08 $l=1.45e-08 $layer=N_src_drn $thickness=1e-09
+ $X=0.3240 $Y=0.0675 $X2=0.3385 $Y2=0.0675
r22 7 1 0.179012 $w=8.1e-08 $l=1.45e-08 $layer=N_src_drn $thickness=1e-09
+ $X=0.3095 $Y=0.0675 $X2=0.3240 $Y2=0.0675
r23 16 7 0.0308642 $w=8.1e-08 $l=2.5e-09 $layer=N_src_drn $thickness=1e-09
+ $X=0.3070 $Y=0.0675 $X2=0.3095 $Y2=0.0675
.ends

.subckt PM_OA211x2_ASAP7_75t_R%A1 VSS 8 3 1 4
c1 1 VSS 0.00526814f
c2 3 VSS 0.0351458f
c3 4 VSS 0.00386805f
r1 8 7 5.07188 $w=1.3e-08 $l=2.18e-08 $layer=M1 $thickness=3.6e-08 $X=0.1350
+ $Y=0.1870 $X2=0.1350 $Y2=0.1652
r2 4 7 7.05399 $w=1.3e-08 $l=3.02e-08 $layer=M1 $thickness=3.6e-08 $X=0.1350
+ $Y=0.1350 $X2=0.1350 $Y2=0.1652
r3 3 1 6.81262 $w=1.1611e-07 $l=0 $layer=LIG $thickness=5.18095e-08 $X=0.1350
+ $Y=0.1350 $X2=0.1350 $Y2=0.1350
r4 1 4 19.3796 $w=1.8e-08 $l=1.8e-08 $layer=V0LIG $X=0.1350 $Y=0.1350
+ $X2=0.1350 $Y2=0.1350
.ends

.subckt PM_OA211x2_ASAP7_75t_R%A2 VSS 12 3 1 6 5 4
c1 1 VSS 0.000408337f
c2 3 VSS 0.00536228f
c3 4 VSS 0.00682952f
c4 5 VSS 0.00710599f
c5 6 VSS 0.00243236f
c6 7 VSS 0.00219102f
r1 5 7 7.44771 $w=1.42162e-08 $l=3.7e-08 $layer=M1 $thickness=3.6e-08 $X=0.0270
+ $Y=0.1720 $X2=0.0270 $Y2=0.1350
r2 12 13 2.73998 $w=1.3e-08 $l=1.17e-08 $layer=M1 $thickness=3.6e-08 $X=0.0270
+ $Y=0.0830 $X2=0.0270 $Y2=0.0947
r3 4 7 3.2503 $w=1.53684e-08 $l=1.9e-08 $layer=M1 $thickness=3.6e-08 $X=0.0270
+ $Y=0.1160 $X2=0.0270 $Y2=0.1350
r4 4 13 4.95528 $w=1.3e-08 $l=2.13e-08 $layer=M1 $thickness=3.6e-08 $X=0.0270
+ $Y=0.1160 $X2=0.0270 $Y2=0.0947
r5 7 10 1.38478 $w=1.70909e-08 $l=1.1e-08 $layer=M1 $thickness=3.6e-08
+ $X=0.0270 $Y=0.1350 $X2=0.0380 $Y2=0.1350
r6 6 9 5.82974 $w=1.3e-08 $l=2.5e-08 $layer=M1 $thickness=3.6e-08 $X=0.0560
+ $Y=0.1350 $X2=0.0810 $Y2=0.1350
r7 6 10 4.19742 $w=1.3e-08 $l=1.8e-08 $layer=M1 $thickness=3.6e-08 $X=0.0560
+ $Y=0.1350 $X2=0.0380 $Y2=0.1350
r8 3 1 6.81262 $w=1.1611e-07 $l=0 $layer=LIG $thickness=5.18095e-08 $X=0.0810
+ $Y=0.1350 $X2=0.0810 $Y2=0.1350
r9 1 9 19.3796 $w=1.8e-08 $l=1.8e-08 $layer=V0LIG $X=0.0810 $Y=0.1350
+ $X2=0.0810 $Y2=0.1350
.ends

.subckt PM_OA211x2_ASAP7_75t_R%NET10 VSS 11 19 22 7 9 1 8 2
c1 1 VSS 0.00539768f
c2 2 VSS 0.00572423f
c3 7 VSS 0.00223526f
c4 8 VSS 0.00282701f
c5 9 VSS 0.0132917f
r1 22 21 0.0308642 $w=8.1e-08 $l=2.5e-09 $layer=N_src_drn $thickness=1e-09
+ $X=0.1790 $Y=0.0675 $X2=0.1765 $Y2=0.0675
r2 20 21 0.0555556 $w=8.1e-08 $l=4.5e-09 $layer=N_src_drn $thickness=1e-09
+ $X=0.1720 $Y=0.0675 $X2=0.1765 $Y2=0.0675
r3 2 20 0.148148 $w=8.1e-08 $l=1.2e-08 $layer=N_src_drn $thickness=1e-09
+ $X=0.1600 $Y=0.0675 $X2=0.1720 $Y2=0.0675
r4 8 2 0.154321 $w=8.1e-08 $l=1.25e-08 $layer=N_src_drn $thickness=1e-09
+ $X=0.1475 $Y=0.0675 $X2=0.1600 $Y2=0.0675
r5 19 8 0.0308642 $w=8.1e-08 $l=2.5e-09 $layer=N_src_drn $thickness=1e-09
+ $X=0.1450 $Y=0.0675 $X2=0.1475 $Y2=0.0675
r6 2 16 19.3796 $w=1.8e-08 $l=1.8e-08 $layer=V0LISD $X=0.1620 $Y=0.0675
+ $X2=0.1620 $Y2=0.0360
r7 15 16 8.39483 $w=1.3e-08 $l=3.6e-08 $layer=M1 $thickness=3.6e-08 $X=0.1260
+ $Y=0.0360 $X2=0.1620 $Y2=0.0360
r8 14 15 7.34548 $w=1.3e-08 $l=3.15e-08 $layer=M1 $thickness=3.6e-08 $X=0.0945
+ $Y=0.0360 $X2=0.1260 $Y2=0.0360
r9 13 14 4.19742 $w=1.3e-08 $l=1.8e-08 $layer=M1 $thickness=3.6e-08 $X=0.0765
+ $Y=0.0360 $X2=0.0945 $Y2=0.0360
r10 12 13 5.24677 $w=1.3e-08 $l=2.25e-08 $layer=M1 $thickness=3.6e-08 $X=0.0540
+ $Y=0.0360 $X2=0.0765 $Y2=0.0360
r11 9 12 2.68168 $w=1.3e-08 $l=1.15e-08 $layer=M1 $thickness=3.6e-08 $X=0.0425
+ $Y=0.0360 $X2=0.0540 $Y2=0.0360
r12 1 12 19.3796 $w=1.8e-08 $l=1.8e-08 $layer=V0LISD $X=0.0540 $Y=0.0675
+ $X2=0.0540 $Y2=0.0360
r13 11 10 0.0308642 $w=8.1e-08 $l=2.5e-09 $layer=N_src_drn $thickness=1e-09
+ $X=0.0710 $Y=0.0675 $X2=0.0685 $Y2=0.0675
r14 7 10 0.154321 $w=8.1e-08 $l=1.25e-08 $layer=N_src_drn $thickness=1e-09
+ $X=0.0560 $Y=0.0675 $X2=0.0685 $Y2=0.0675
r15 1 7 1e-05
.ends

.subckt PM_OA211x2_ASAP7_75t_R%NET019 VSS 12 13 53 54 67 68 70 18 15 4 17 14 3
+ 16 5 22 20 1 21 25 24
c1 1 VSS 0.00754028f
c2 3 VSS 0.00662085f
c3 4 VSS 0.00297256f
c4 5 VSS 0.00739649f
c5 12 VSS 0.0806984f
c6 13 VSS 0.0810361f
c7 14 VSS 0.00514731f
c8 15 VSS 0.00493242f
c9 16 VSS 0.00497803f
c10 17 VSS 0.0210208f
c11 18 VSS 0.0068866f
c12 19 VSS 0.000732308f
c13 20 VSS 0.00162604f
c14 21 VSS 0.00326486f
c15 22 VSS 0.000624461f
c16 23 VSS 0.00278559f
c17 24 VSS 0.000572933f
c18 25 VSS 0.000588741f
r1 70 69 0.0462963 $w=5.4e-08 $l=2.5e-09 $layer=P_src_drn $thickness=1e-09
+ $X=0.0710 $Y=0.2160 $X2=0.0685 $Y2=0.2160
r2 15 69 0.231482 $w=5.4e-08 $l=1.25e-08 $layer=P_src_drn $thickness=1e-09
+ $X=0.0560 $Y=0.2160 $X2=0.0685 $Y2=0.2160
r3 68 66 0.0925926 $w=2.7e-08 $l=2.5e-09 $layer=P_src_drn $thickness=1e-09
+ $X=0.2330 $Y=0.2295 $X2=0.2305 $Y2=0.2295
r4 5 66 0.537037 $w=2.7e-08 $l=1.45e-08 $layer=P_src_drn $thickness=1e-09
+ $X=0.2160 $Y=0.2295 $X2=0.2305 $Y2=0.2295
r5 16 5 0.537037 $w=2.7e-08 $l=1.45e-08 $layer=P_src_drn $thickness=1e-09
+ $X=0.2015 $Y=0.2295 $X2=0.2160 $Y2=0.2295
r6 67 16 0.0925926 $w=2.7e-08 $l=2.5e-09 $layer=P_src_drn $thickness=1e-09
+ $X=0.1990 $Y=0.2295 $X2=0.2015 $Y2=0.2295
r7 3 63 19.3796 $w=1.8e-08 $l=1.8e-08 $layer=V0LISD $X=0.0540 $Y=0.2160
+ $X2=0.0540 $Y2=0.2340
r8 5 55 19.3796 $w=1.8e-08 $l=1.8e-08 $layer=V0LISD $X=0.2160 $Y=0.2295
+ $X2=0.2160 $Y2=0.2340
r9 63 64 5.24677 $w=1.3e-08 $l=2.25e-08 $layer=M1 $thickness=3.6e-08 $X=0.0540
+ $Y=0.2340 $X2=0.0765 $Y2=0.2340
r10 61 64 4.19742 $w=1.3e-08 $l=1.8e-08 $layer=M1 $thickness=3.6e-08 $X=0.0945
+ $Y=0.2340 $X2=0.0765 $Y2=0.2340
r11 60 61 4.19742 $w=1.3e-08 $l=1.8e-08 $layer=M1 $thickness=3.6e-08 $X=0.1125
+ $Y=0.2340 $X2=0.0945 $Y2=0.2340
r12 59 60 5.24677 $w=1.3e-08 $l=2.25e-08 $layer=M1 $thickness=3.6e-08 $X=0.1350
+ $Y=0.2340 $X2=0.1125 $Y2=0.2340
r13 58 59 6.29612 $w=1.3e-08 $l=2.7e-08 $layer=M1 $thickness=3.6e-08 $X=0.1620
+ $Y=0.2340 $X2=0.1350 $Y2=0.2340
r14 57 58 6.29612 $w=1.3e-08 $l=2.7e-08 $layer=M1 $thickness=3.6e-08 $X=0.1890
+ $Y=0.2340 $X2=0.1620 $Y2=0.2340
r15 55 56 3.14806 $w=1.3e-08 $l=1.35e-08 $layer=M1 $thickness=3.6e-08 $X=0.2160
+ $Y=0.2340 $X2=0.2295 $Y2=0.2340
r16 17 55 3.14806 $w=1.3e-08 $l=1.35e-08 $layer=M1 $thickness=3.6e-08 $X=0.2025
+ $Y=0.2340 $X2=0.2160 $Y2=0.2340
r17 17 57 3.14806 $w=1.3e-08 $l=1.35e-08 $layer=M1 $thickness=3.6e-08 $X=0.2025
+ $Y=0.2340 $X2=0.1890 $Y2=0.2340
r18 23 56 1.49895 $w=1.63333e-08 $l=1.35e-08 $layer=M1 $thickness=3.6e-08
+ $X=0.2430 $Y=0.2340 $X2=0.2295 $Y2=0.2340
r19 19 50 2.45586 $w=1.44e-08 $l=1.25e-08 $layer=M1 $thickness=3.6e-08
+ $X=0.2430 $Y=0.2160 $X2=0.2430 $Y2=0.2035
r20 19 23 2.5483 $w=1.79e-08 $l=1.8e-08 $layer=M1 $thickness=3.6e-08 $X=0.2430
+ $Y=0.2160 $X2=0.2430 $Y2=0.2340
r21 54 52 0.0308642 $w=8.1e-08 $l=2.5e-09 $layer=N_src_drn $thickness=1e-09
+ $X=0.1250 $Y=0.0675 $X2=0.1225 $Y2=0.0675
r22 4 52 0.179012 $w=8.1e-08 $l=1.45e-08 $layer=N_src_drn $thickness=1e-09
+ $X=0.1080 $Y=0.0675 $X2=0.1225 $Y2=0.0675
r23 14 4 0.179012 $w=8.1e-08 $l=1.45e-08 $layer=N_src_drn $thickness=1e-09
+ $X=0.0935 $Y=0.0675 $X2=0.1080 $Y2=0.0675
r24 53 14 0.0308642 $w=8.1e-08 $l=2.5e-09 $layer=N_src_drn $thickness=1e-09
+ $X=0.0910 $Y=0.0675 $X2=0.0935 $Y2=0.0675
r25 22 50 0.9184 $w=1.8e-08 $l=9e-09 $layer=M1 $thickness=3.6e-08 $X=0.2430
+ $Y=0.1945 $X2=0.2430 $Y2=0.2035
r26 4 48 19.3796 $w=1.8e-08 $l=1.8e-08 $layer=V0LISD $X=0.1080 $Y=0.0675
+ $X2=0.1080 $Y2=0.0720
r27 20 25 4.64701 $w=1.46667e-08 $l=2.7e-08 $layer=M1 $thickness=3.6e-08
+ $X=0.2700 $Y=0.1980 $X2=0.2970 $Y2=0.1980
r28 20 50 4.55457 $w=1.3814e-08 $l=2.75545e-08 $layer=M1 $thickness=3.6e-08
+ $X=0.2700 $Y=0.1980 $X2=0.2430 $Y2=0.2035
r29 48 49 3.14806 $w=1.3e-08 $l=1.35e-08 $layer=M1 $thickness=3.6e-08 $X=0.1080
+ $Y=0.0720 $X2=0.1215 $Y2=0.0720
r30 47 49 3.14806 $w=1.3e-08 $l=1.35e-08 $layer=M1 $thickness=3.6e-08 $X=0.1350
+ $Y=0.0720 $X2=0.1215 $Y2=0.0720
r31 46 47 5.82974 $w=1.3e-08 $l=2.5e-08 $layer=M1 $thickness=3.6e-08 $X=0.1600
+ $Y=0.0720 $X2=0.1350 $Y2=0.0720
r32 45 46 4.19742 $w=1.3e-08 $l=1.8e-08 $layer=M1 $thickness=3.6e-08 $X=0.1780
+ $Y=0.0720 $X2=0.1600 $Y2=0.0720
r33 44 45 2.56509 $w=1.3e-08 $l=1.1e-08 $layer=M1 $thickness=3.6e-08 $X=0.1890
+ $Y=0.0720 $X2=0.1780 $Y2=0.0720
r34 43 44 6.29612 $w=1.3e-08 $l=2.7e-08 $layer=M1 $thickness=3.6e-08 $X=0.2160
+ $Y=0.0720 $X2=0.1890 $Y2=0.0720
r35 42 43 6.29612 $w=1.3e-08 $l=2.7e-08 $layer=M1 $thickness=3.6e-08 $X=0.2430
+ $Y=0.0720 $X2=0.2160 $Y2=0.0720
r36 41 42 6.06293 $w=1.3e-08 $l=2.6e-08 $layer=M1 $thickness=3.6e-08 $X=0.2690
+ $Y=0.0720 $X2=0.2430 $Y2=0.0720
r37 18 24 0.682785 $w=1.75e-08 $l=1e-08 $layer=M1 $thickness=3.6e-08 $X=0.2870
+ $Y=0.0720 $X2=0.2970 $Y2=0.0720
r38 18 41 4.19742 $w=1.3e-08 $l=1.8e-08 $layer=M1 $thickness=3.6e-08 $X=0.2870
+ $Y=0.0720 $X2=0.2690 $Y2=0.0720
r39 25 39 3.36447 $w=1.71023e-08 $l=2.15e-08 $layer=M1 $thickness=3.6e-08
+ $X=0.2970 $Y=0.1980 $X2=0.2970 $Y2=0.1765
r40 13 34 2.92627 $w=1.245e-07 $l=1e-09 $layer=LIG $thickness=5.2e-08 $X=0.3510
+ $Y=0.1350 $X2=0.3510 $Y2=0.1340
r41 38 39 5.36336 $w=1.3e-08 $l=2.3e-08 $layer=M1 $thickness=3.6e-08 $X=0.2970
+ $Y=0.1535 $X2=0.2970 $Y2=0.1765
r42 37 38 4.5472 $w=1.3e-08 $l=1.95e-08 $layer=M1 $thickness=3.6e-08 $X=0.2970
+ $Y=0.1340 $X2=0.2970 $Y2=0.1535
r43 36 37 4.31401 $w=1.3e-08 $l=1.85e-08 $layer=M1 $thickness=3.6e-08 $X=0.2970
+ $Y=0.1155 $X2=0.2970 $Y2=0.1340
r44 21 36 5.13017 $w=1.3e-08 $l=2.2e-08 $layer=M1 $thickness=3.6e-08 $X=0.2970
+ $Y=0.0935 $X2=0.2970 $Y2=0.1155
r45 21 24 3.36447 $w=1.71023e-08 $l=2.15e-08 $layer=M1 $thickness=3.6e-08
+ $X=0.2970 $Y=0.0935 $X2=0.2970 $Y2=0.0720
r46 32 34 4.08841 $w=2.066e-08 $l=1.25e-08 $layer=LIG $thickness=4.8e-08
+ $X=0.3385 $Y=0.1340 $X2=0.3510 $Y2=0.1340
r47 31 32 8.56549 $w=1.53e-08 $l=1.45e-08 $layer=LIG $thickness=4.8e-08
+ $X=0.3240 $Y=0.1340 $X2=0.3385 $Y2=0.1340
r48 30 31 8.56549 $w=1.53e-08 $l=1.45e-08 $layer=LIG $thickness=4.8e-08
+ $X=0.3095 $Y=0.1340 $X2=0.3240 $Y2=0.1340
r49 28 30 1.60739 $w=1.64167e-08 $l=3e-09 $layer=LIG $thickness=4.8e-08
+ $X=0.3065 $Y=0.1340 $X2=0.3095 $Y2=0.1340
r50 27 28 2.48102 $w=2.2e-08 $l=9.5e-09 $layer=LIG $thickness=4.8e-08 $X=0.2970
+ $Y=0.1340 $X2=0.3065 $Y2=0.1340
r51 27 37 19.3796 $w=1.8e-08 $l=1.8e-08 $layer=V0LIG $X=0.2970 $Y=0.1340
+ $X2=0.2970 $Y2=0.1340
r52 1 27 2.48102 $w=2.2e-08 $l=9.5e-09 $layer=LIG $thickness=4.8e-08 $X=0.2875
+ $Y=0.1340 $X2=0.2970 $Y2=0.1340
r53 1 29 0.425942 $w=1.865e-08 $l=1e-09 $layer=LIG $thickness=4.8e-08 $X=0.2875
+ $Y=0.1340 $X2=0.2865 $Y2=0.1340
r54 12 27 2.66511 $w=1.29895e-07 $l=1e-09 $layer=LIG $thickness=5.22105e-08
+ $X=0.2970 $Y=0.1350 $X2=0.2970 $Y2=0.1340
r55 12 29 0.610027 $w=2.16919e-07 $l=1.05475e-08 $layer=Gate_1
+ $thickness=5.5619e-08 $X=0.2970 $Y=0.1350 $X2=0.2865 $Y2=0.1340
r56 12 30 1.79147 $w=1.8466e-07 $l=1.25399e-08 $layer=LIG $thickness=5.44e-08
+ $X=0.2970 $Y=0.1350 $X2=0.3095 $Y2=0.1340
r57 3 15 1e-05
.ends


*
.SUBCKT OA211x2_ASAP7_75t_R VSS VDD A2 A1 B C Y
*
* VSS VSS
* VDD VDD
* A2 A2
* A1 A1
* B B
* C C
* Y Y
*
*

MM41 N_MM41_d N_MM41_g N_MM41_s VSS nmos_rvt L=2e-08 W=8.1e-08 nfin=3
MM40 N_MM40_d N_MM40_g N_MM40_s VSS nmos_rvt L=2e-08 W=8.1e-08 nfin=3
MM42 N_MM42_d N_MM42_g N_MM42_s VSS nmos_rvt L=2e-08 W=8.1e-08 nfin=3
MM43 N_MM43_d N_MM43_g VSS VSS nmos_rvt L=2e-08 W=8.1e-08 nfin=3
MM1 N_MM1_d N_MM0_g VSS VSS nmos_rvt L=2e-08 W=8.1e-08 nfin=3
MM1@2 N_MM1@2_d N_MM0@2_g VSS VSS nmos_rvt L=2e-08 W=8.1e-08 nfin=3
MM37 N_MM37_d N_MM41_g N_MM37_s VDD pmos_rvt L=2e-08 W=5.4e-08 nfin=2
MM36 N_MM36_d N_MM40_g VDD VDD pmos_rvt L=2e-08 W=5.4e-08 nfin=2
MM38 N_MM38_d N_MM42_g VDD VDD pmos_rvt L=2e-08 W=2.7e-08 nfin=1
MM39 N_MM39_d N_MM43_g VDD VDD pmos_rvt L=2e-08 W=2.7e-08 nfin=1
MM0 N_MM0_d N_MM0_g VDD VDD pmos_rvt L=2e-08 W=8.1e-08 nfin=3
MM0@2 N_MM0@2_d N_MM0@2_g VDD VDD pmos_rvt L=2e-08 W=8.1e-08 nfin=3


*include "OA211x2_ASAP7_75t_R.pex.netlist.pxi"
*BEGIN of ".include "OA211x2_ASAP7_75t_R.pex.netlist.pxi"

*ENDS
*
x_PM_OA211x2_ASAP7_75t_R%NET19 VSS N_MM42_s N_MM43_d N_NET19_1
+ PM_OA211x2_ASAP7_75t_R%NET19
cc_1 N_NET19_1 N_MM42_g 0.0172802f
cc_2 N_NET19_1 N_MM43_g 0.0173217f
x_PM_OA211x2_ASAP7_75t_R%NET20 VSS N_MM37_s N_MM36_d N_NET20_1
+ PM_OA211x2_ASAP7_75t_R%NET20
cc_3 N_NET20_1 N_MM41_g 0.0125978f
cc_4 N_NET20_1 N_MM40_g 0.0126845f
x_PM_OA211x2_ASAP7_75t_R%noxref_12 VSS N_noxref_12_1
+ PM_OA211x2_ASAP7_75t_R%noxref_12
cc_5 N_noxref_12_1 N_MM41_g 0.00224212f
cc_6 N_noxref_12_1 N_NET10_7 0.036464f
x_PM_OA211x2_ASAP7_75t_R%C VSS C N_MM43_g N_C_1 N_C_4 PM_OA211x2_ASAP7_75t_R%C
cc_7 N_C_1 N_B_1 0.0015943f
cc_8 N_C_4 N_B_4 0.00244543f
cc_9 N_MM43_g N_MM42_g 0.0100575f
x_PM_OA211x2_ASAP7_75t_R%noxref_15 VSS N_noxref_15_1
+ PM_OA211x2_ASAP7_75t_R%noxref_15
cc_10 N_noxref_15_1 N_MM0@2_g 0.00146741f
cc_11 N_noxref_15_1 N_Y_8 0.000844784f
cc_12 N_noxref_15_1 N_noxref_14_1 0.00177258f
x_PM_OA211x2_ASAP7_75t_R%noxref_14 VSS N_noxref_14_1
+ PM_OA211x2_ASAP7_75t_R%noxref_14
cc_13 N_noxref_14_1 N_MM0@2_g 0.00146988f
cc_14 N_noxref_14_1 N_Y_7 0.000850445f
x_PM_OA211x2_ASAP7_75t_R%noxref_13 VSS N_noxref_13_1
+ PM_OA211x2_ASAP7_75t_R%noxref_13
cc_15 N_noxref_13_1 N_MM41_g 0.00421327f
cc_16 N_noxref_13_1 N_NET019_15 0.0275353f
cc_17 N_noxref_13_1 N_NET10_7 0.000598921f
cc_18 N_noxref_13_1 N_noxref_12_1 0.00189296f
x_PM_OA211x2_ASAP7_75t_R%B VSS B N_MM42_g N_B_1 N_B_4 PM_OA211x2_ASAP7_75t_R%B
cc_19 N_B_1 N_A1_1 0.00125451f
cc_20 N_B_4 N_A1_4 0.00354648f
cc_21 N_MM42_g N_MM40_g 0.00630592f
x_PM_OA211x2_ASAP7_75t_R%Y VSS Y N_MM1_d N_MM1@2_d N_MM0_d N_MM0@2_d N_Y_7
+ N_Y_9 N_Y_11 N_Y_2 N_Y_1 N_Y_10 N_Y_8 PM_OA211x2_ASAP7_75t_R%Y
cc_22 N_Y_7 N_NET019_25 0.000239697f
cc_23 N_Y_7 N_NET019_20 0.000404056f
cc_24 N_Y_7 N_NET019_1 0.00505131f
cc_25 N_Y_9 N_NET019_18 0.000893323f
cc_26 N_Y_11 N_NET019_1 0.00112874f
cc_27 N_Y_2 N_NET019_21 0.00183401f
cc_28 N_Y_2 N_MM0@2_g 0.00228478f
cc_29 N_Y_1 N_MM0@2_g 0.00252069f
cc_30 N_Y_10 N_NET019_25 0.0025304f
cc_31 N_Y_9 N_NET019_24 0.00316593f
cc_32 N_Y_8 N_MM0@2_g 0.0300858f
cc_33 N_Y_7 N_MM0_g 0.0373108f
cc_34 N_Y_7 N_MM0@2_g 0.0698209f
x_PM_OA211x2_ASAP7_75t_R%A1 VSS A1 N_MM40_g N_A1_1 N_A1_4
+ PM_OA211x2_ASAP7_75t_R%A1
cc_35 N_A1_1 N_A2_1 0.00137801f
cc_36 N_A1_4 N_A2_6 0.00192187f
cc_37 N_MM40_g N_MM41_g 0.00792384f
x_PM_OA211x2_ASAP7_75t_R%A2 VSS A2 N_MM41_g N_A2_1 N_A2_6 N_A2_5 N_A2_4
+ PM_OA211x2_ASAP7_75t_R%A2
x_PM_OA211x2_ASAP7_75t_R%NET10 VSS N_MM41_s N_MM40_s N_MM42_d N_NET10_7
+ N_NET10_9 N_NET10_1 N_NET10_8 N_NET10_2 PM_OA211x2_ASAP7_75t_R%NET10
cc_38 N_NET10_7 N_A2_1 0.000855589f
cc_39 N_NET10_9 N_A2_4 0.000866743f
cc_40 N_NET10_1 N_A2_4 0.00144771f
cc_41 N_NET10_1 N_MM41_g 0.00182192f
cc_42 N_NET10_7 N_MM41_g 0.03543f
cc_43 N_NET10_8 N_A1_1 0.000658476f
cc_44 N_NET10_2 N_MM40_g 0.000916494f
cc_45 N_NET10_8 N_MM40_g 0.0343232f
cc_46 N_NET10_8 N_B_1 0.000868699f
cc_47 N_NET10_2 N_MM42_g 0.00120822f
cc_48 N_NET10_8 N_MM42_g 0.0347388f
cc_49 N_NET10_9 N_NET019_14 0.000598244f
cc_50 N_NET10_8 N_NET019_14 0.00174082f
cc_51 N_NET10_2 N_NET019_18 0.000687525f
cc_52 N_NET10_9 N_NET019_4 0.00080026f
cc_53 N_NET10_1 N_NET019_4 0.00142792f
cc_54 N_NET10_2 N_NET019_4 0.00487733f
cc_55 N_NET10_9 N_NET019_18 0.00913515f
x_PM_OA211x2_ASAP7_75t_R%NET019 VSS N_MM0_g N_MM0@2_g N_MM41_d N_MM40_d
+ N_MM38_d N_MM39_d N_MM37_d N_NET019_18 N_NET019_15 N_NET019_4 N_NET019_17
+ N_NET019_14 N_NET019_3 N_NET019_16 N_NET019_5 N_NET019_22 N_NET019_20
+ N_NET019_1 N_NET019_21 N_NET019_25 N_NET019_24 PM_OA211x2_ASAP7_75t_R%NET019
cc_56 N_NET019_18 N_MM41_g 0.000337793f
cc_57 N_NET019_15 N_MM41_g 0.0115461f
cc_58 N_NET019_4 N_A2_1 0.000564856f
cc_59 N_NET019_4 N_MM41_g 0.000925281f
cc_60 N_NET019_17 N_A2_6 0.0011414f
cc_61 N_NET019_14 N_A2_1 0.00117405f
cc_62 N_NET019_18 N_A2_6 0.00120411f
cc_63 N_NET019_3 N_MM41_g 0.00123907f
cc_64 N_NET019_17 N_A2_5 0.00143938f
cc_65 N_NET019_14 N_MM41_g 0.0493151f
cc_66 N_NET019_4 N_MM40_g 0.00133885f
cc_67 N_NET019_14 N_A1_1 0.00081103f
cc_68 N_NET019_18 N_A1_4 0.00121295f
cc_69 N_NET019_17 N_A1_4 0.0015765f
cc_70 N_NET019_4 N_A1_4 0.00281052f
cc_71 N_NET019_14 N_MM40_g 0.0356891f
cc_72 N_NET019_16 N_MM42_g 0.00685713f
cc_73 N_NET019_5 N_MM42_g 0.000337331f
cc_74 N_NET019_17 N_B_4 0.00116775f
cc_75 N_NET019_18 N_B_4 0.00145583f
cc_76 N_NET019_22 N_B_4 0.00354831f
cc_77 N_NET019_14 N_MM42_g 0.00947804f
cc_78 N_NET019_20 N_MM43_g 0.000355319f
cc_79 N_NET019_22 N_MM43_g 0.000596738f
cc_80 N_NET019_1 N_C_1 0.00210519f
cc_81 N_NET019_18 N_C_4 0.00137576f
cc_82 N_NET019_16 N_MM43_g 0.00659891f
cc_83 N_NET019_21 N_C_4 0.00435462f
cc_84 N_MM0_g N_MM43_g 0.0124298f
*END of OA211x2_ASAP7_75t_R.pxi
.ENDS
** Design:	OA21x2_ASAP7_75t_R
* Created:	"Sat Aug 18 2018"
* Vendor:	"Mentor Graphics Corporation"
* Program:	"xACT"
* Version:	"v2017.1_34.33"
* Corner Name: typical_27
* Nominal Temperature: 25C
* Circuit Temperature: 27C
* 
* Integrated TICER reduction is not enabled.
* SHORT DELAY THRESHOLD: 2e-15
* Fill Mode: NG
* PEX REDUCE CC ABSOLUTE : 1
* PEX REDUCE CC RELATIVE : 0.01
* Delta transform mode : 344834

*include "OA21x2_ASAP7_75t_R.pex.netlist.pex"
*BEGIN of ".include "OA21x2_ASAP7_75t_R.pex.netlist.pex"


.subckt PM_OA21x2_ASAP7_75t_R%noxref_11 VSS 1
c1 1 VSS 0.0418372f
.ends

.subckt PM_OA21x2_ASAP7_75t_R%NET27 VSS 2 3 1
c1 1 VSS 0.00101583f
r1 2 1 0.209877 $w=8.1e-08 $l=1.7e-08 $layer=P_src_drn $thickness=1e-09
+ $X=0.0910 $Y=0.2025 $X2=0.1080 $Y2=0.2025
r2 3 1 0.209877 $w=8.1e-08 $l=1.7e-08 $layer=P_src_drn $thickness=1e-09
+ $X=0.1250 $Y=0.2025 $X2=0.1080 $Y2=0.2025
.ends

.subckt PM_OA21x2_ASAP7_75t_R%noxref_10 VSS 1
c1 1 VSS 0.0060731f
.ends

.subckt PM_OA21x2_ASAP7_75t_R%B VSS 10 3 6 5 1 4
c1 1 VSS 0.00696028f
c2 3 VSS 0.0818415f
c3 4 VSS 0.00239834f
c4 5 VSS 0.00299341f
c5 6 VSS 0.00194779f
r1 5 6 1.38235 $w=1.64615e-08 $l=1.3e-08 $layer=M1 $thickness=3.6e-08 $X=0.2020
+ $Y=0.1620 $X2=0.1890 $Y2=0.1620
r2 6 13 1.49895 $w=1.95333e-08 $l=1.35e-08 $layer=M1 $thickness=3.6e-08
+ $X=0.1890 $Y=0.1620 $X2=0.1890 $Y2=0.1485
r3 12 13 3.14806 $w=1.3e-08 $l=1.35e-08 $layer=M1 $thickness=3.6e-08 $X=0.1890
+ $Y=0.1350 $X2=0.1890 $Y2=0.1485
r4 11 12 3.32295 $w=1.3e-08 $l=1.43e-08 $layer=M1 $thickness=3.6e-08 $X=0.1890
+ $Y=0.1207 $X2=0.1890 $Y2=0.1350
r5 10 11 1.34084 $w=1.3e-08 $l=5.7e-09 $layer=M1 $thickness=3.6e-08 $X=0.1890
+ $Y=0.1150 $X2=0.1890 $Y2=0.1207
r6 10 4 1.10765 $w=1.3e-08 $l=4.8e-09 $layer=M1 $thickness=3.6e-08 $X=0.1890
+ $Y=0.1150 $X2=0.1890 $Y2=0.1102
r7 3 1 2.92627 $w=1.245e-07 $l=0 $layer=LIG $thickness=5.2e-08 $X=0.1890
+ $Y=0.1350 $X2=0.1890 $Y2=0.1350
r8 1 12 19.3796 $w=1.8e-08 $l=1.8e-08 $layer=V0LIG $X=0.1890 $Y=0.1350
+ $X2=0.1890 $Y2=0.1350
.ends

.subckt PM_OA21x2_ASAP7_75t_R%noxref_13 VSS 1
c1 1 VSS 0.0423617f
.ends

.subckt PM_OA21x2_ASAP7_75t_R%noxref_12 VSS 1
c1 1 VSS 0.0422926f
.ends

.subckt PM_OA21x2_ASAP7_75t_R%Y VSS 22 16 17 30 31 7 8 10 9 1 2 11
c1 1 VSS 0.0102573f
c2 2 VSS 0.0104359f
c3 7 VSS 0.00453477f
c4 8 VSS 0.00450093f
c5 9 VSS 0.00852437f
c6 10 VSS 0.00786087f
c7 11 VSS 0.00662643f
c8 12 VSS 0.00339341f
c9 13 VSS 0.00346115f
r1 31 29 0.0308642 $w=8.1e-08 $l=2.5e-09 $layer=P_src_drn $thickness=1e-09
+ $X=0.2870 $Y=0.2025 $X2=0.2845 $Y2=0.2025
r2 2 29 0.179012 $w=8.1e-08 $l=1.45e-08 $layer=P_src_drn $thickness=1e-09
+ $X=0.2700 $Y=0.2025 $X2=0.2845 $Y2=0.2025
r3 8 2 0.179012 $w=8.1e-08 $l=1.45e-08 $layer=P_src_drn $thickness=1e-09
+ $X=0.2555 $Y=0.2025 $X2=0.2700 $Y2=0.2025
r4 30 8 0.0308642 $w=8.1e-08 $l=2.5e-09 $layer=P_src_drn $thickness=1e-09
+ $X=0.2530 $Y=0.2025 $X2=0.2555 $Y2=0.2025
r5 2 26 19.3796 $w=1.8e-08 $l=1.8e-08 $layer=V0LISD $X=0.2700 $Y=0.2025
+ $X2=0.2700 $Y2=0.2340
r6 26 27 5.24677 $w=1.3e-08 $l=2.25e-08 $layer=M1 $thickness=3.6e-08 $X=0.2700
+ $Y=0.2340 $X2=0.2925 $Y2=0.2340
r7 10 13 4.64701 $w=1.46667e-08 $l=2.7e-08 $layer=M1 $thickness=3.6e-08
+ $X=0.3240 $Y=0.2340 $X2=0.3510 $Y2=0.2340
r8 10 27 7.34548 $w=1.3e-08 $l=3.15e-08 $layer=M1 $thickness=3.6e-08 $X=0.3240
+ $Y=0.2340 $X2=0.2925 $Y2=0.2340
r9 13 24 2.5483 $w=1.79e-08 $l=1.8e-08 $layer=M1 $thickness=3.6e-08 $X=0.3510
+ $Y=0.2340 $X2=0.3510 $Y2=0.2160
r10 23 24 9.73567 $w=1.3e-08 $l=4.18e-08 $layer=M1 $thickness=3.6e-08 $X=0.3510
+ $Y=0.1742 $X2=0.3510 $Y2=0.2160
r11 22 23 7.75356 $w=1.3e-08 $l=3.32e-08 $layer=M1 $thickness=3.6e-08 $X=0.3510
+ $Y=0.1410 $X2=0.3510 $Y2=0.1742
r12 22 21 9.1527 $w=1.3e-08 $l=3.93e-08 $layer=M1 $thickness=3.6e-08 $X=0.3510
+ $Y=0.1410 $X2=0.3510 $Y2=0.1017
r13 11 12 2.5483 $w=1.79e-08 $l=1.8e-08 $layer=M1 $thickness=3.6e-08 $X=0.3510
+ $Y=0.0540 $X2=0.3510 $Y2=0.0360
r14 11 21 11.1348 $w=1.3e-08 $l=4.77e-08 $layer=M1 $thickness=3.6e-08 $X=0.3510
+ $Y=0.0540 $X2=0.3510 $Y2=0.1017
r15 12 20 4.64701 $w=1.46667e-08 $l=2.7e-08 $layer=M1 $thickness=3.6e-08
+ $X=0.3510 $Y=0.0360 $X2=0.3240 $Y2=0.0360
r16 19 20 7.34548 $w=1.3e-08 $l=3.15e-08 $layer=M1 $thickness=3.6e-08 $X=0.2925
+ $Y=0.0360 $X2=0.3240 $Y2=0.0360
r17 18 19 5.24677 $w=1.3e-08 $l=2.25e-08 $layer=M1 $thickness=3.6e-08 $X=0.2700
+ $Y=0.0360 $X2=0.2925 $Y2=0.0360
r18 9 18 2.68168 $w=1.3e-08 $l=1.15e-08 $layer=M1 $thickness=3.6e-08 $X=0.2585
+ $Y=0.0360 $X2=0.2700 $Y2=0.0360
r19 1 18 19.3796 $w=1.8e-08 $l=1.8e-08 $layer=V0LISD $X=0.2700 $Y=0.0675
+ $X2=0.2700 $Y2=0.0360
r20 17 15 0.0308642 $w=8.1e-08 $l=2.5e-09 $layer=N_src_drn $thickness=1e-09
+ $X=0.2870 $Y=0.0675 $X2=0.2845 $Y2=0.0675
r21 1 15 0.179012 $w=8.1e-08 $l=1.45e-08 $layer=N_src_drn $thickness=1e-09
+ $X=0.2700 $Y=0.0675 $X2=0.2845 $Y2=0.0675
r22 7 1 0.179012 $w=8.1e-08 $l=1.45e-08 $layer=N_src_drn $thickness=1e-09
+ $X=0.2555 $Y=0.0675 $X2=0.2700 $Y2=0.0675
r23 16 7 0.0308642 $w=8.1e-08 $l=2.5e-09 $layer=N_src_drn $thickness=1e-09
+ $X=0.2530 $Y=0.0675 $X2=0.2555 $Y2=0.0675
.ends

.subckt PM_OA21x2_ASAP7_75t_R%A1 VSS 14 3 1 4
c1 1 VSS 0.00869571f
c2 3 VSS 0.0438468f
c3 4 VSS 0.0201033f
r1 15 16 3.20636 $w=1.3e-08 $l=1.38e-08 $layer=M1 $thickness=3.6e-08 $X=0.0270
+ $Y=0.1212 $X2=0.0270 $Y2=0.1350
r2 14 15 1.45744 $w=1.3e-08 $l=6.2e-09 $layer=M1 $thickness=3.6e-08 $X=0.0270
+ $Y=0.1150 $X2=0.0270 $Y2=0.1212
r3 14 13 1.10765 $w=1.3e-08 $l=4.8e-09 $layer=M1 $thickness=3.6e-08 $X=0.0270
+ $Y=0.1150 $X2=0.0270 $Y2=0.1102
r4 4 13 3.90593 $w=1.3e-08 $l=1.67e-08 $layer=M1 $thickness=3.6e-08 $X=0.0270
+ $Y=0.0935 $X2=0.0270 $Y2=0.1102
r5 9 10 27.9728 $w=9.3e-09 $l=1.2e-08 $layer=LIG $thickness=4.8e-08 $X=0.0270
+ $Y=0.1350 $X2=0.0390 $Y2=0.1350
r6 9 16 28.9687 $w=1.6e-08 $l=1.8e-08 $layer=V0LIG $X=0.0270 $Y=0.1350
+ $X2=0.0270 $Y2=0.1350
r7 7 10 34.966 $w=9.3e-09 $l=1.5e-08 $layer=LIG $thickness=4.8e-08 $X=0.0540
+ $Y=0.1350 $X2=0.0390 $Y2=0.1350
r8 6 7 33.8005 $w=9.3e-09 $l=1.45e-08 $layer=LIG $thickness=4.8e-08 $X=0.0685
+ $Y=0.1350 $X2=0.0540 $Y2=0.1350
r9 3 1 5.04173 $w=1.215e-07 $l=0 $layer=LIG $thickness=5.2e-08 $X=0.0810
+ $Y=0.1350 $X2=0.0810 $Y2=0.1350
r10 1 11 7.05813 $w=1.53909e-08 $l=1.1e-08 $layer=LIG $thickness=4.8e-08
+ $X=0.0810 $Y=0.1350 $X2=0.0920 $Y2=0.1350
r11 3 6 6.14234 $w=1.8346e-07 $l=1.25e-08 $layer=LIG $thickness=5.44e-08
+ $X=0.0810 $Y=0.1350 $X2=0.0685 $Y2=0.1350
r12 3 11 2.64573 $w=2.07209e-07 $l=1.1e-08 $layer=LIG $thickness=5.52727e-08
+ $X=0.0810 $Y=0.1350 $X2=0.0920 $Y2=0.1350
.ends

.subckt PM_OA21x2_ASAP7_75t_R%A2 VSS 8 3 4 1
c1 1 VSS 0.00703257f
c2 3 VSS 0.00887506f
c3 4 VSS 0.00540027f
r1 9 10 2.62338 $w=1.3e-08 $l=1.13e-08 $layer=M1 $thickness=3.6e-08 $X=0.1350
+ $Y=0.1237 $X2=0.1350 $Y2=0.1350
r2 8 9 0.641272 $w=1.3e-08 $l=2.7e-09 $layer=M1 $thickness=3.6e-08 $X=0.1350
+ $Y=0.1210 $X2=0.1350 $Y2=0.1237
r3 8 4 1.80722 $w=1.3e-08 $l=7.8e-09 $layer=M1 $thickness=3.6e-08 $X=0.1350
+ $Y=0.1210 $X2=0.1350 $Y2=0.1132
r4 3 1 5.04045 $w=1.32911e-07 $l=0 $layer=LIG $thickness=5.24444e-08 $X=0.1350
+ $Y=0.1350 $X2=0.1350 $Y2=0.1350
r5 1 10 19.3796 $w=1.8e-08 $l=1.8e-08 $layer=V0LIG $X=0.1350 $Y=0.1350
+ $X2=0.1350 $Y2=0.1350
.ends

.subckt PM_OA21x2_ASAP7_75t_R%NET11 VSS 11 19 20 7 1 8 2 9
c1 1 VSS 0.00545432f
c2 2 VSS 0.00730745f
c3 7 VSS 0.00251873f
c4 8 VSS 0.00323212f
c5 9 VSS 0.0123937f
r1 20 18 0.0308642 $w=8.1e-08 $l=2.5e-09 $layer=N_src_drn $thickness=1e-09
+ $X=0.1790 $Y=0.0675 $X2=0.1765 $Y2=0.0675
r2 2 18 0.179012 $w=8.1e-08 $l=1.45e-08 $layer=N_src_drn $thickness=1e-09
+ $X=0.1620 $Y=0.0675 $X2=0.1765 $Y2=0.0675
r3 8 2 0.179012 $w=8.1e-08 $l=1.45e-08 $layer=N_src_drn $thickness=1e-09
+ $X=0.1475 $Y=0.0675 $X2=0.1620 $Y2=0.0675
r4 19 8 0.0308642 $w=8.1e-08 $l=2.5e-09 $layer=N_src_drn $thickness=1e-09
+ $X=0.1450 $Y=0.0675 $X2=0.1475 $Y2=0.0675
r5 2 15 19.3796 $w=1.8e-08 $l=1.8e-08 $layer=V0LISD $X=0.1620 $Y=0.0675
+ $X2=0.1620 $Y2=0.0360
r6 14 15 8.39483 $w=1.3e-08 $l=3.6e-08 $layer=M1 $thickness=3.6e-08 $X=0.1260
+ $Y=0.0360 $X2=0.1620 $Y2=0.0360
r7 13 14 10.4935 $w=1.3e-08 $l=4.5e-08 $layer=M1 $thickness=3.6e-08 $X=0.0810
+ $Y=0.0360 $X2=0.1260 $Y2=0.0360
r8 12 13 6.29612 $w=1.3e-08 $l=2.7e-08 $layer=M1 $thickness=3.6e-08 $X=0.0540
+ $Y=0.0360 $X2=0.0810 $Y2=0.0360
r9 9 12 2.68168 $w=1.3e-08 $l=1.15e-08 $layer=M1 $thickness=3.6e-08 $X=0.0425