* Design:	AO211x2_ASAP7_75t_R
* Created:	"Thu Aug 16 2018"
* Vendor:	"Mentor Graphics Corporation"
* Program:	"xACT"
* Version:	"v2017.1_34.33"
* Corner Name: typical_27
* Nominal Temperature: 25C
* Circuit Temperature: 27C
* 
* Integrated TICER reduction is not enabled.
* SHORT DELAY THRESHOLD: 2e-15
* Fill Mode: NG
* PEX REDUCE CC ABSOLUTE : 1
* PEX REDUCE CC RELATIVE : 0.01
* Delta transform mode : 344834

*include "AO211x2_ASAP7_75t_R.pex.netlist.pex"
*BEGIN of ".include "AO211x2_ASAP7_75t_R.pex.netlist.pex"


.subckt PM_AO211x2_ASAP7_75t_R%noxref_19 VSS 1
c1 1 VSS 0.00680544f
.ends

.subckt PM_AO211x2_ASAP7_75t_R%NET23 VSS 2 3 1
c1 1 VSS 0.000924087f
r1 2 1 0.209877 $w=8.1e-08 $l=1.7e-08 $layer=N_src_drn $thickness=1e-09
+ $X=0.1450 $Y=0.0675 $X2=0.1620 $Y2=0.0675
r2 3 1 0.209877 $w=8.1e-08 $l=1.7e-08 $layer=N_src_drn $thickness=1e-09
+ $X=0.1790 $Y=0.0675 $X2=0.1620 $Y2=0.0675
.ends

.subckt PM_AO211x2_ASAP7_75t_R%noxref_15 VSS 1
c1 1 VSS 0.00563538f
.ends

.subckt PM_AO211x2_ASAP7_75t_R%noxref_13 VSS 1
c1 1 VSS 0.00567272f
.ends

.subckt PM_AO211x2_ASAP7_75t_R%noxref_17 VSS 1
c1 1 VSS 0.00548431f
.ends

.subckt PM_AO211x2_ASAP7_75t_R%NET20 VSS 19 22 41 42 44 46 1 2 17 13 14 15 3 4
+ 16
c1 1 VSS 0.00793781f
c2 2 VSS 0.00974442f
c3 3 VSS 0.00682849f
c4 4 VSS 0.00555895f
c5 13 VSS 0.00341837f
c6 14 VSS 0.00449947f
c7 15 VSS 0.00323679f
c8 16 VSS 0.00238503f
c9 17 VSS 0.031388f
r1 16 4 0.154321 $w=8.1e-08 $l=1.25e-08 $layer=P_src_drn $thickness=1e-09
+ $X=0.3635 $Y=0.2025 $X2=0.3760 $Y2=0.2025
r2 46 16 0.0308642 $w=8.1e-08 $l=2.5e-09 $layer=P_src_drn $thickness=1e-09
+ $X=0.3610 $Y=0.2025 $X2=0.3635 $Y2=0.2025
r3 44 43 0.0308642 $w=8.1e-08 $l=2.5e-09 $layer=P_src_drn $thickness=1e-09
+ $X=0.0710 $Y=0.2025 $X2=0.0685 $Y2=0.2025
r4 13 43 0.154321 $w=8.1e-08 $l=1.25e-08 $layer=P_src_drn $thickness=1e-09
+ $X=0.0560 $Y=0.2025 $X2=0.0685 $Y2=0.2025
r5 42 40 0.0308642 $w=8.1e-08 $l=2.5e-09 $layer=P_src_drn $thickness=1e-09
+ $X=0.1790 $Y=0.2025 $X2=0.1765 $Y2=0.2025
r6 2 40 0.179012 $w=8.1e-08 $l=1.45e-08 $layer=P_src_drn $thickness=1e-09
+ $X=0.1620 $Y=0.2025 $X2=0.1765 $Y2=0.2025
r7 14 2 0.179012 $w=8.1e-08 $l=1.45e-08 $layer=P_src_drn $thickness=1e-09
+ $X=0.1475 $Y=0.2025 $X2=0.1620 $Y2=0.2025
r8 41 14 0.0308642 $w=8.1e-08 $l=2.5e-09 $layer=P_src_drn $thickness=1e-09
+ $X=0.1450 $Y=0.2025 $X2=0.1475 $Y2=0.2025
r9 4 37 19.3796 $w=1.8e-08 $l=1.8e-08 $layer=V0LISD $X=0.3780 $Y=0.2025
+ $X2=0.3780 $Y2=0.2340
r10 1 32 19.3796 $w=1.8e-08 $l=1.8e-08 $layer=V0LISD $X=0.0540 $Y=0.2025
+ $X2=0.0500 $Y2=0.2340
r11 2 25 19.3796 $w=1.8e-08 $l=1.8e-08 $layer=V0LISD $X=0.1620 $Y=0.2025
+ $X2=0.1620 $Y2=0.2340
r12 36 37 8.97781 $w=1.3e-08 $l=3.85e-08 $layer=M1 $thickness=3.6e-08 $X=0.3395
+ $Y=0.2340 $X2=0.3780 $Y2=0.2340
r13 35 36 10.4935 $w=1.3e-08 $l=4.5e-08 $layer=M1 $thickness=3.6e-08 $X=0.2945
+ $Y=0.2340 $X2=0.3395 $Y2=0.2340
r14 34 35 5.71315 $w=1.3e-08 $l=2.45e-08 $layer=M1 $thickness=3.6e-08 $X=0.2700
+ $Y=0.2340 $X2=0.2945 $Y2=0.2340
r15 33 34 3.14806 $w=1.3e-08 $l=1.35e-08 $layer=M1 $thickness=3.6e-08 $X=0.2565
+ $Y=0.2340 $X2=0.2700 $Y2=0.2340
r16 29 30 4.6638 $w=1.3e-08 $l=2e-08 $layer=M1 $thickness=3.6e-08 $X=0.0590
+ $Y=0.2340 $X2=0.0790 $Y2=0.2340
r17 29 32 2.09871 $w=1.3e-08 $l=9e-09 $layer=M1 $thickness=3.6e-08 $X=0.0590
+ $Y=0.2340 $X2=0.0500 $Y2=0.2340
r18 28 30 5.13017 $w=1.3e-08 $l=2.2e-08 $layer=M1 $thickness=3.6e-08 $X=0.1010
+ $Y=0.2340 $X2=0.0790 $Y2=0.2340
r19 27 28 5.71315 $w=1.3e-08 $l=2.45e-08 $layer=M1 $thickness=3.6e-08 $X=0.1255
+ $Y=0.2340 $X2=0.1010 $Y2=0.2340
r20 25 26 5.82974 $w=1.3e-08 $l=2.5e-08 $layer=M1 $thickness=3.6e-08 $X=0.1620
+ $Y=0.2340 $X2=0.1870 $Y2=0.2340
r21 24 25 3.14806 $w=1.3e-08 $l=1.35e-08 $layer=M1 $thickness=3.6e-08 $X=0.1485
+ $Y=0.2340 $X2=0.1620 $Y2=0.2340
r22 24 27 5.36336 $w=1.3e-08 $l=2.3e-08 $layer=M1 $thickness=3.6e-08 $X=0.1485
+ $Y=0.2340 $X2=0.1255 $Y2=0.2340
r23 23 26 5.13018 $w=1.3e-08 $l=2.2e-08 $layer=M1 $thickness=3.6e-08 $X=0.2090
+ $Y=0.2340 $X2=0.1870 $Y2=0.2340
r24 17 23 5.71315 $w=1.3e-08 $l=2.45e-08 $layer=M1 $thickness=3.6e-08 $X=0.2335
+ $Y=0.2340 $X2=0.2090 $Y2=0.2340
r25 17 33 5.36336 $w=1.3e-08 $l=2.3e-08 $layer=M1 $thickness=3.6e-08 $X=0.2335
+ $Y=0.2340 $X2=0.2565 $Y2=0.2340
r26 3 34 19.3796 $w=1.8e-08 $l=1.8e-08 $layer=V0LISD $X=0.2700 $Y=0.2025
+ $X2=0.2700 $Y2=0.2340
r27 22 21 0.0308642 $w=8.1e-08 $l=2.5e-09 $layer=P_src_drn $thickness=1e-09
+ $X=0.2870 $Y=0.2025 $X2=0.2845 $Y2=0.2025
r28 3 21 0.154321 $w=8.1e-08 $l=1.25e-08 $layer=P_src_drn $thickness=1e-09
+ $X=0.2720 $Y=0.2025 $X2=0.2845 $Y2=0.2025
r29 18 3 0.148148 $w=8.1e-08 $l=1.2e-08 $layer=P_src_drn $thickness=1e-09
+ $X=0.2600 $Y=0.2025 $X2=0.2720 $Y2=0.2025
r30 15 18 0.0555556 $w=8.1e-08 $l=4.5e-09 $layer=P_src_drn $thickness=1e-09
+ $X=0.2555 $Y=0.2025 $X2=0.2600 $Y2=0.2025
r31 19 15 0.0308642 $w=8.1e-08 $l=2.5e-09 $layer=P_src_drn $thickness=1e-09
+ $X=0.2530 $Y=0.2025 $X2=0.2555 $Y2=0.2025
r32 1 13 1e-05
.ends

.subckt PM_AO211x2_ASAP7_75t_R%noxref_16 VSS 1
c1 1 VSS 0.00433792f
.ends

.subckt PM_AO211x2_ASAP7_75t_R%noxref_12 VSS 1
c1 1 VSS 0.00469537f
.ends

.subckt PM_AO211x2_ASAP7_75t_R%A1 VSS 9 3 4 1 7 6 10
c1 1 VSS 0.00528466f
c2 3 VSS 0.0429698f
c3 4 VSS 0.0432173f
c4 5 VSS 0.00959179f
c5 6 VSS 0.00502857f
c6 7 VSS 0.00232434f
c7 8 VSS 0.0088526f
c8 9 VSS 0.00250953f
c9 10 VSS 0.00434237f
r1 8 27 3.01711 $w=1.55e-08 $l=1.8e-08 $layer=M1 $thickness=3.6e-08 $X=0.0270
+ $Y=0.0360 $X2=0.0270 $Y2=0.0540
r2 9 6 6.16517 $w=1.44286e-08 $l=3.15e-08 $layer=M1 $thickness=3.6e-08
+ $X=0.0270 $Y=0.1350 $X2=0.0270 $Y2=0.1665
r3 6 10 6.16517 $w=1.44286e-08 $l=3.15e-08 $layer=M1 $thickness=3.6e-08
+ $X=0.0270 $Y=0.1665 $X2=0.0270 $Y2=0.1980
r4 26 27 4.19742 $w=1.3e-08 $l=1.8e-08 $layer=M1 $thickness=3.6e-08 $X=0.0270
+ $Y=0.0720 $X2=0.0270 $Y2=0.0540
r5 9 5 6.16517 $w=1.44286e-08 $l=3.15e-08 $layer=M1 $thickness=3.6e-08
+ $X=0.0270 $Y=0.1350 $X2=0.0270 $Y2=0.1035
r6 5 26 7.34548 $w=1.3e-08 $l=3.15e-08 $layer=M1 $thickness=3.6e-08 $X=0.0270
+ $Y=0.1035 $X2=0.0270 $Y2=0.0720
r7 9 24 3.1337 $w=1.54324e-08 $l=1.85e-08 $layer=M1 $thickness=3.6e-08
+ $X=0.0270 $Y=0.1350 $X2=0.0455 $Y2=0.1350
r8 7 22 4.08082 $w=1.3e-08 $l=1.75e-08 $layer=M1 $thickness=3.6e-08 $X=0.0635
+ $Y=0.1350 $X2=0.0810 $Y2=0.1350
r9 7 24 4.19742 $w=1.3e-08 $l=1.8e-08 $layer=M1 $thickness=3.6e-08 $X=0.0635
+ $Y=0.1350 $X2=0.0455 $Y2=0.1350
r10 3 17 2.66511 $w=1.29895e-07 $l=0 $layer=LIG $thickness=5.22105e-08
+ $X=0.0810 $Y=0.1350 $X2=0.0810 $Y2=0.1350
r11 17 18 2.48102 $w=2.2e-08 $l=9.5e-09 $layer=LIG $thickness=4.8e-08 $X=0.0810
+ $Y=0.1350 $X2=0.0905 $Y2=0.1350
r12 17 22 19.3796 $w=1.8e-08 $l=1.8e-08 $layer=V0LIG $X=0.0810 $Y=0.1350
+ $X2=0.0810 $Y2=0.1350
r13 14 18 1.60739 $w=1.64167e-08 $l=3e-09 $layer=LIG $thickness=4.8e-08
+ $X=0.0935 $Y=0.1350 $X2=0.0905 $Y2=0.1350
r14 13 14 8.56549 $w=1.53e-08 $l=1.45e-08 $layer=LIG $thickness=4.8e-08
+ $X=0.1080 $Y=0.1350 $X2=0.0935 $Y2=0.1350
r15 12 13 8.56549 $w=1.53e-08 $l=1.45e-08 $layer=LIG $thickness=4.8e-08
+ $X=0.1225 $Y=0.1350 $X2=0.1080 $Y2=0.1350
r16 4 1 2.92627 $w=1.245e-07 $l=0 $layer=LIG $thickness=5.2e-08 $X=0.1350
+ $Y=0.1350 $X2=0.1350 $Y2=0.1350
r17 1 12 4.08841 $w=2.066e-08 $l=1.25e-08 $layer=LIG $thickness=4.8e-08
+ $X=0.1350 $Y=0.1350 $X2=0.1225 $Y2=0.1350
r18 1 21 3.20232 $w=2.13909e-08 $l=1.1e-08 $layer=LIG $thickness=4.8e-08
+ $X=0.1350 $Y=0.1350 $X2=0.1460 $Y2=0.1350
r19 4 12 1.79147 $w=1.8466e-07 $l=1.25e-08 $layer=LIG $thickness=5.44e-08
+ $X=0.1350 $Y=0.1350 $X2=0.1225 $Y2=0.1350
r20 4 21 0.905388 $w=2.07755e-07 $l=1.1e-08 $layer=LIG $thickness=5.52727e-08
+ $X=0.1350 $Y=0.1350 $X2=0.1460 $Y2=0.1350
.ends

.subckt PM_AO211x2_ASAP7_75t_R%NET22 VSS 15 18 32 34 13 1 10 11 2 3 12
c1 1 VSS 0.00287279f
c2 2 VSS 0.00390532f
c3 3 VSS 0.00369538f
c4 10 VSS 0.00211008f
c5 11 VSS 0.00216739f
c6 12 VSS 0.00240314f
c7 13 VSS 0.005477f
r1 12 3 0.154321 $w=8.1e-08 $l=1.25e-08 $layer=P_src_drn $thickness=1e-09
+ $X=0.5795 $Y=0.2025 $X2=0.5920 $Y2=0.2025
r2 34 12 0.0308642 $w=8.1e-08 $l=2.5e-09 $layer=P_src_drn $thickness=1e-09
+ $X=0.5770 $Y=0.2025 $X2=0.5795 $Y2=0.2025
r3 32 31 0.0308642 $w=8.1e-08 $l=2.5e-09 $layer=P_src_drn $thickness=1e-09
+ $X=0.5030 $Y=0.2025 $X2=0.5005 $Y2=0.2025
r4 11 31 0.154321 $w=8.1e-08 $l=1.25e-08 $layer=P_src_drn $thickness=1e-09
+ $X=0.4880 $Y=0.2025 $X2=0.5005 $Y2=0.2025
r5 3 29 19.3796 $w=1.8e-08 $l=1.8e-08 $layer=V0LISD $X=0.5940 $Y=0.2025
+ $X2=0.5940 $Y2=0.1980
r6 2 24 19.3796 $w=1.8e-08 $l=1.8e-08 $layer=V0LISD $X=0.4860 $Y=0.2025
+ $X2=0.4900 $Y2=0.1980
r7 28 29 7.22888 $w=1.3e-08 $l=3.1e-08 $layer=M1 $thickness=3.6e-08 $X=0.5630
+ $Y=0.1980 $X2=0.5940 $Y2=0.1980
r8 27 28 6.8791 $w=1.3e-08 $l=2.95e-08 $layer=M1 $thickness=3.6e-08 $X=0.5335
+ $Y=0.1980 $X2=0.5630 $Y2=0.1980
r9 26 27 4.31401 $w=1.3e-08 $l=1.85e-08 $layer=M1 $thickness=3.6e-08 $X=0.5150
+ $Y=0.1980 $X2=0.5335 $Y2=0.1980
r10 25 26 3.61444 $w=1.3e-08 $l=1.55e-08 $layer=M1 $thickness=3.6e-08 $X=0.4995
+ $Y=0.1980 $X2=0.5150 $Y2=0.1980
r11 24 25 2.2153 $w=1.3e-08 $l=9.5e-09 $layer=M1 $thickness=3.6e-08 $X=0.4900
+ $Y=0.1980 $X2=0.4995 $Y2=0.1980
r12 23 24 2.09871 $w=1.3e-08 $l=9e-09 $layer=M1 $thickness=3.6e-08 $X=0.4810
+ $Y=0.1980 $X2=0.4900 $Y2=0.1980
r13 22 23 10.7267 $w=1.3e-08 $l=4.6e-08 $layer=M1 $thickness=3.6e-08 $X=0.4350
+ $Y=0.1980 $X2=0.4810 $Y2=0.1980
r14 21 22 16.7897 $w=1.3e-08 $l=7.2e-08 $layer=M1 $thickness=3.6e-08 $X=0.3630
+ $Y=0.1980 $X2=0.4350 $Y2=0.1980
r15 20 21 9.0944 $w=1.3e-08 $l=3.9e-08 $layer=M1 $thickness=3.6e-08 $X=0.3240
+ $Y=0.1980 $X2=0.3630 $Y2=0.1980
r16 19 20 2.56509 $w=1.3e-08 $l=1.1e-08 $layer=M1 $thickness=3.6e-08 $X=0.3130
+ $Y=0.1980 $X2=0.3240 $Y2=0.1980
r17 13 19 0.582974 $w=1.3e-08 $l=2.5e-09 $layer=M1 $thickness=3.6e-08 $X=0.3105
+ $Y=0.1980 $X2=0.3130 $Y2=0.1980
r18 1 20 19.3796 $w=1.8e-08 $l=1.8e-08 $layer=V0LISD $X=0.3240 $Y=0.2025
+ $X2=0.3240 $Y2=0.1980
r19 18 17 0.0308642 $w=8.1e-08 $l=2.5e-09 $layer=P_src_drn $thickness=1e-09
+ $X=0.3410 $Y=0.2025 $X2=0.3385 $Y2=0.2025
r20 16 17 0.0555556 $w=8.1e-08 $l=4.5e-09 $layer=P_src_drn $thickness=1e-09
+ $X=0.3340 $Y=0.2025 $X2=0.3385 $Y2=0.2025
r21 1 16 0.148148 $w=8.1e-08 $l=1.2e-08 $layer=P_src_drn $thickness=1e-09
+ $X=0.3220 $Y=0.2025 $X2=0.3340 $Y2=0.2025
r22 10 1 0.154321 $w=8.1e-08 $l=1.25e-08 $layer=P_src_drn $thickness=1e-09
+ $X=0.3095 $Y=0.2025 $X2=0.3220 $Y2=0.2025
r23 15 10 0.0308642 $w=8.1e-08 $l=2.5e-09 $layer=P_src_drn $thickness=1e-09
+ $X=0.3070 $Y=0.2025 $X2=0.3095 $Y2=0.2025
r24 2 11 1e-05
.ends

.subckt PM_AO211x2_ASAP7_75t_R%noxref_18 VSS 1
c1 1 VSS 0.00536205f
.ends

.subckt PM_AO211x2_ASAP7_75t_R%noxref_14 VSS 1
c1 1 VSS 0.00406618f
.ends

.subckt PM_AO211x2_ASAP7_75t_R%A2 VSS 23 3 4 6 5 10 7 1 8 9
c1 1 VSS 0.0134773f
c2 3 VSS 0.0827318f
c3 4 VSS 0.109538f
c4 5 VSS 0.00171234f
c5 6 VSS 0.00202809f
c6 7 VSS 0.00219522f
c7 8 VSS 0.00198152f
c8 9 VSS 0.00257459f
c9 10 VSS 0.00126829f
r1 6 24 5.75699 $w=1.39091e-08 $l=2.75e-08 $layer=M1 $thickness=3.6e-08
+ $X=0.1350 $Y=0.1665 $X2=0.1350 $Y2=0.1390
r2 6 9 6.16517 $w=1.44286e-08 $l=3.15e-08 $layer=M1 $thickness=3.6e-08
+ $X=0.1350 $Y=0.1665 $X2=0.1350 $Y2=0.1980
r3 5 10 5.60393 $w=1.36731e-08 $l=2.6e-08 $layer=M1 $thickness=3.6e-08
+ $X=0.1350 $Y=0.1035 $X2=0.1350 $Y2=0.1295
r4 5 8 6.16517 $w=1.44286e-08 $l=3.15e-08 $layer=M1 $thickness=3.6e-08
+ $X=0.1350 $Y=0.1035 $X2=0.1350 $Y2=0.0720
r5 23 24 0.561244 $w=1.8e-08 $l=5.5e-09 $layer=M1 $thickness=3.6e-08 $X=0.1350
+ $Y=0.1335 $X2=0.1350 $Y2=0.1390
r6 23 10 0.408178 $w=1.8e-08 $l=4e-09 $layer=M1 $thickness=3.6e-08 $X=0.1350
+ $Y=0.1335 $X2=0.1350 $Y2=0.1295
r7 4 19 2.92627 $w=1.245e-07 $l=0 $layer=LIG $thickness=5.2e-08 $X=0.2430
+ $Y=0.1350 $X2=0.2430 $Y2=0.1350
r8 7 21 6.29612 $w=1.3e-08 $l=2.7e-08 $layer=M1 $thickness=3.6e-08 $X=0.1620
+ $Y=0.1350 $X2=0.1890 $Y2=0.1350
r9 23 7 4.24844 $w=9e-09 $l=2.70416e-08 $layer=M1 $thickness=3.6e-08 $X=0.1350
+ $Y=0.1335 $X2=0.1620 $Y2=0.1350
r10 17 19 4.08841 $w=2.066e-08 $l=1.25e-08 $layer=LIG $thickness=4.8e-08
+ $X=0.2305 $Y=0.1350 $X2=0.2430 $Y2=0.1350
r11 16 17 8.56549 $w=1.53e-08 $l=1.45e-08 $layer=LIG $thickness=4.8e-08
+ $X=0.2160 $Y=0.1350 $X2=0.2305 $Y2=0.1350
r12 15 16 8.56549 $w=1.53e-08 $l=1.45e-08 $layer=LIG $thickness=4.8e-08
+ $X=0.2015 $Y=0.1350 $X2=0.2160 $Y2=0.1350
r13 13 15 1.60739 $w=1.64167e-08 $l=3e-09 $layer=LIG $thickness=4.8e-08
+ $X=0.1985 $Y=0.1350 $X2=0.2015 $Y2=0.1350
r14 12 13 2.48102 $w=2.2e-08 $l=9.5e-09 $layer=LIG $thickness=4.8e-08 $X=0.1890
+ $Y=0.1350 $X2=0.1985 $Y2=0.1350
r15 12 21 19.3796 $w=1.8e-08 $l=1.8e-08 $layer=V0LIG $X=0.1890 $Y=0.1350
+ $X2=0.1890 $Y2=0.1350
r16 1 12 2.48102 $w=2.2e-08 $l=9.5e-09 $layer=LIG $thickness=4.8e-08 $X=0.1795
+ $Y=0.1350 $X2=0.1890 $Y2=0.1350
r17 1 14 0.425942 $w=1.865e-08 $l=1e-09 $layer=LIG $thickness=4.8e-08 $X=0.1795
+ $Y=0.1350 $X2=0.1785 $Y2=0.1350
r18 3 12 2.66511 $w=1.29895e-07 $l=0 $layer=LIG $thickness=5.22105e-08
+ $X=0.1890 $Y=0.1350 $X2=0.1890 $Y2=0.1350
r19 3 14 0.610027 $w=2.16919e-07 $l=1.05e-08 $layer=Gate_1
+ $thickness=5.5619e-08 $X=0.1890 $Y=0.1350 $X2=0.1785 $Y2=0.1350
r20 3 15 1.79147 $w=1.8466e-07 $l=1.25e-08 $layer=LIG $thickness=5.44e-08
+ $X=0.1890 $Y=0.1350 $X2=0.2015 $Y2=0.1350
.ends

.subckt PM_AO211x2_ASAP7_75t_R%noxref_21 VSS 1
c1 1 VSS 0.0416261f
.ends

.subckt PM_AO211x2_ASAP7_75t_R%noxref_22 VSS 1
c1 1 VSS 0.0422851f
.ends

.subckt PM_AO211x2_ASAP7_75t_R%noxref_20 VSS 1
c1 1 VSS 0.0423882f
.ends

.subckt PM_AO211x2_ASAP7_75t_R%noxref_23 VSS 1
c1 1 VSS 0.0423852f
.ends

.subckt PM_AO211x2_ASAP7_75t_R%Y VSS 21 16 17 28 29 7 10 8 11 1 2
c1 1 VSS 0.0102794f
c2 2 VSS 0.0105868f
c3 7 VSS 0.0045344f
c4 8 VSS 0.00458272f
c5 9 VSS 0.00941892f
c6 10 VSS 0.00960005f
c7 11 VSS 0.00751816f
c8 12 VSS 0.00344242f
c9 13 VSS 0.0034429f
r1 29 27 0.0308642 $w=8.1e-08 $l=2.5e-09 $layer=P_src_drn $thickness=1e-09
+ $X=0.7730 $Y=0.2025 $X2=0.7705 $Y2=0.2025
r2 2 27 0.179012 $w=8.1e-08 $l=1.45e-08 $layer=P_src_drn $thickness=1e-09
+ $X=0.7560 $Y=0.2025 $X2=0.7705 $Y2=0.2025
r3 8 2 0.179012 $w=8.1e-08 $l=1.45e-08 $layer=P_src_drn $thickness=1e-09
+ $X=0.7415 $Y=0.2025 $X2=0.7560 $Y2=0.2025
r4 28 8 0.0308642 $w=8.1e-08 $l=2.5e-09 $layer=P_src_drn $thickness=1e-09
+ $X=0.7390 $Y=0.2025 $X2=0.7415 $Y2=0.2025
r5 2 23 19.3796 $w=1.8e-08 $l=1.8e-08 $layer=V0LISD $X=0.7560 $Y=0.2025
+ $X2=0.7560 $Y2=0.2340
r6 23 24 9.44419 $w=1.3e-08 $l=4.05e-08 $layer=M1 $thickness=3.6e-08 $X=0.7560
+ $Y=0.2340 $X2=0.7965 $Y2=0.2340
r7 10 23 2.56509 $w=1.3e-08 $l=1.1e-08 $layer=M1 $thickness=3.6e-08 $X=0.7450
+ $Y=0.2340 $X2=0.7560 $Y2=0.2340
r8 13 22 10.0104 $w=1.4764e-08 $l=5e-08 $layer=M1 $thickness=3.6e-08 $X=0.8370
+ $Y=0.2340 $X2=0.8370 $Y2=0.1840
r9 13 24 7.79507 $w=1.41111e-08 $l=4.05e-08 $layer=M1 $thickness=3.6e-08
+ $X=0.8370 $Y=0.2340 $X2=0.7965 $Y2=0.2340
r10 21 22 11.6595 $w=1.3e-08 $l=5e-08 $layer=M1 $thickness=3.6e-08 $X=0.8370
+ $Y=0.1340 $X2=0.8370 $Y2=0.1840
r11 11 12 9.77719 $w=1.48e-08 $l=4.9e-08 $layer=M1 $thickness=3.6e-08 $X=0.8370
+ $Y=0.0850 $X2=0.8370 $Y2=0.0360
r12 21 11 11.4263 $w=1.3e-08 $l=4.9e-08 $layer=M1 $thickness=3.6e-08 $X=0.8370
+ $Y=0.1340 $X2=0.8370 $Y2=0.0850
r13 12 20 7.79507 $w=1.41111e-08 $l=4.05e-08 $layer=M1 $thickness=3.6e-08
+ $X=0.8370 $Y=0.0360 $X2=0.7965 $Y2=0.0360
r14 19 20 9.44419 $w=1.3e-08 $l=4.05e-08 $layer=M1 $thickness=3.6e-08 $X=0.7560
+ $Y=0.0360 $X2=0.7965 $Y2=0.0360
r15 18 19 2.56509 $w=1.3e-08 $l=1.1e-08 $layer=M1 $thickness=3.6e-08 $X=0.7450
+ $Y=0.0360 $X2=0.7560 $Y2=0.0360
r16 9 18 0.582974 $w=1.3e-08 $l=2.5e-09 $layer=M1 $thickness=3.6e-08 $X=0.7425
+ $Y=0.0360 $X2=0.7450 $Y2=0.0360
r17 1 19 19.3796 $w=1.8e-08 $l=1.8e-08 $layer=V0LISD $X=0.7560 $Y=0.0675
+ $X2=0.7560 $Y2=0.0360
r18 17 15 0.0308642 $w=8.1e-08 $l=2.5e-09 $layer=N_src_drn $thickness=1e-09
+ $X=0.7730 $Y=0.0675 $X2=0.7705 $Y2=0.0675
r19 1 15 0.179012 $w=8.1e-08 $l=1.45e-08 $layer=N_src_drn $thickness=1e-09
+ $X=0.7560 $Y=0.0675 $X2=0.7705 $Y2=0.0675
r20 7 1 0.179012 $w=8.1e-08 $l=1.45e-08 $layer=N_src_drn $thickness=1e-09
+ $X=0.7415 $Y=0.0675 $X2=0.7560 $Y2=0.0675
r21 16 7 0.0308642 $w=8.1e-08 $l=2.5e-09 $layer=N_src_drn $thickness=1e-09
+ $X=0.7390 $Y=0.0675 $X2=0.7415 $Y2=0.0675
.ends

.subckt PM_AO211x2_ASAP7_75t_R%C VSS 5 3 4 7 1 6
c1 1 VSS 0.00788424f
c2 3 VSS 0.0349784f
c3 4 VSS 0.0365674f
c4 5 VSS 0.00398464f
c5 6 VSS 0.00387113f
c6 7 VSS 0.00325083f
r1 7 20 1.96775 $w=1.63333e-08 $l=1.35e-08 $layer=M1 $thickness=3.6e-08
+ $X=0.5130 $Y=0.1620 $X2=0.5130 $Y2=0.1485
r2 6 19 6.16517 $w=1.44286e-08 $l=3.15e-08 $layer=M1 $thickness=3.6e-08
+ $X=0.5130 $Y=0.0720 $X2=0.5130 $Y2=0.1035
r3 4 16 2.92627 $w=1.245e-07 $l=0 $layer=LIG $thickness=5.2e-08 $X=0.5670
+ $Y=0.1350 $X2=0.5670 $Y2=0.1350
r4 5 9 19.3796 $w=1.8e-08 $l=1.8e-08 $layer=V0LIG $X=0.5130 $Y=0.1350
+ $X2=0.5130 $Y2=0.1350
r5 5 19 7.34548 $w=1.3e-08 $l=3.15e-08 $layer=M1 $thickness=3.6e-08 $X=0.5130
+ $Y=0.1350 $X2=0.5130 $Y2=0.1035
r6 5 20 3.14806 $w=1.3e-08 $l=1.35e-08 $layer=M1 $thickness=3.6e-08 $X=0.5130
+ $Y=0.1350 $X2=0.5130 $Y2=0.1485
r7 14 16 4.08841 $w=2.066e-08 $l=1.25e-08 $layer=LIG $thickness=4.8e-08
+ $X=0.5545 $Y=0.1350 $X2=0.5670 $Y2=0.1350
r8 13 14 8.56549 $w=1.53e-08 $l=1.45e-08 $layer=LIG $thickness=4.8e-08
+ $X=0.5400 $Y=0.1350 $X2=0.5545 $Y2=0.1350
r9 12 13 8.56549 $w=1.53e-08 $l=1.45e-08 $layer=LIG $thickness=4.8e-08
+ $X=0.5255 $Y=0.1350 $X2=0.5400 $Y2=0.1350
r10 10 12 1.60739 $w=1.64167e-08 $l=3e-09 $layer=LIG $thickness=4.8e-08
+ $X=0.5225 $Y=0.1350 $X2=0.5255 $Y2=0.1350
r11 9 10 2.48102 $w=2.2e-08 $l=9.5e-09 $layer=LIG $thickness=4.8e-08 $X=0.5130
+ $Y=0.1350 $X2=0.5225 $Y2=0.1350
r12 1 9 2.48102 $w=2.2e-08 $l=9.5e-09 $layer=LIG $thickness=4.8e-08 $X=0.5035
+ $Y=0.1350 $X2=0.5130 $Y2=0.1350
r13 1 11 0.425942 $w=1.865e-08 $l=1e-09 $layer=LIG $thickness=4.8e-08 $X=0.5035
+ $Y=0.1350 $X2=0.5025 $Y2=0.1350
r14 3 9 2.66511 $w=1.29895e-07 $l=0 $layer=LIG $thickness=5.22105e-08 $X=0.5130
+ $Y=0.1350 $X2=0.5130 $Y2=0.1350
r15 3 11 0.610027 $w=2.16919e-07 $l=1.05e-08 $layer=Gate_1
+ $thickness=5.5619e-08 $X=0.5130 $Y=0.1350 $X2=0.5025 $Y2=0.1350
r16 3 12 1.79147 $w=1.8466e-07 $l=1.25e-08 $layer=LIG $thickness=5.44e-08
+ $X=0.5130 $Y=0.1350 $X2=0.5255 $Y2=0.1350
.ends

.subckt PM_AO211x2_ASAP7_75t_R%B VSS 21 3 4 1 5 6 10 8 9
c1 1 VSS 0.00638578f
c2 3 VSS 0.0342605f
c3 4 VSS 0.00805509f
c4 5 VSS 0.00378958f
c5 6 VSS 0.00317452f
c6 7 VSS 0.00327982f
c7 8 VSS 0.00449843f
c8 9 VSS 0.00374239f
c9 10 VSS 0.00256775f
r1 9 25 3.01711 $w=1.55e-08 $l=1.8e-08 $layer=M1 $thickness=3.6e-08 $X=0.2430
+ $Y=0.1980 $X2=0.2430 $Y2=0.1800
r2 24 25 4.19742 $w=1.3e-08 $l=1.8e-08 $layer=M1 $thickness=3.6e-08 $X=0.2430
+ $Y=0.1620 $X2=0.2430 $Y2=0.1800
r3 6 10 1.96775 $w=1.63333e-08 $l=1.35e-08 $layer=M1 $thickness=3.6e-08
+ $X=0.2430 $Y=0.1485 $X2=0.2430 $Y2=0.1350
r4 6 24 3.14806 $w=1.3e-08 $l=1.35e-08 $layer=M1 $thickness=3.6e-08 $X=0.2430
+ $Y=0.1485 $X2=0.2430 $Y2=0.1620
r5 5 10 6.16517 $w=1.44286e-08 $l=3.15e-08 $layer=M1 $thickness=3.6e-08
+ $X=0.2430 $Y=0.1035 $X2=0.2430 $Y2=0.1350
r6 5 8 6.16517 $w=1.44286e-08 $l=3.15e-08 $layer=M1 $thickness=3.6e-08
+ $X=0.2430 $Y=0.1035 $X2=0.2430 $Y2=0.0720
r7 4 19 2.92627 $w=1.245e-07 $l=0 $layer=LIG $thickness=5.2e-08 $X=0.3510
+ $Y=0.1350 $X2=0.3510 $Y2=0.1350
r8 21 7 6.29612 $w=1.3e-08 $l=2.7e-08 $layer=M1 $thickness=3.6e-08 $X=0.2970
+ $Y=0.1350 $X2=0.2700 $Y2=0.1350
r9 7 10 5.11582 $w=1.46667e-08 $l=2.7e-08 $layer=M1 $thickness=3.6e-08
+ $X=0.2700 $Y=0.1350 $X2=0.2430 $Y2=0.1350
r10 17 19 4.08841 $w=2.066e-08 $l=1.25e-08 $layer=LIG $thickness=4.8e-08
+ $X=0.3385 $Y=0.1350 $X2=0.3510 $Y2=0.1350
r11 16 17 8.56549 $w=1.53e-08 $l=1.45e-08 $layer=LIG $thickness=4.8e-08
+ $X=0.3240 $Y=0.1350 $X2=0.3385 $Y2=0.1350
r12 15 16 8.56549 $w=1.53e-08 $l=1.45e-08 $layer=LIG $thickness=4.8e-08
+ $X=0.3095 $Y=0.1350 $X2=0.3240 $Y2=0.1350
r13 13 15 1.60739 $w=1.64167e-08 $l=3e-09 $layer=LIG $thickness=4.8e-08
+ $X=0.3065 $Y=0.1350 $X2=0.3095 $Y2=0.1350
r14 12 13 2.48102 $w=2.2e-08 $l=9.5e-09 $layer=LIG $thickness=4.8e-08 $X=0.2970
+ $Y=0.1350 $X2=0.3065 $Y2=0.1350
r15 21 12 19.3796 $w=1.8e-08 $l=1.8e-08 $layer=V0LIG $X=0.2970 $Y=0.1350
+ $X2=0.2970 $Y2=0.1350
r16 1 12 2.48102 $w=2.2e-08 $l=9.5e-09 $layer=LIG $thickness=4.8e-08 $X=0.2875
+ $Y=0.1350 $X2=0.2970 $Y2=0.1350
r17 1 14 0.425942 $w=1.865e-08 $l=1e-09 $layer=LIG $thickness=4.8e-08 $X=0.2875
+ $Y=0.1350 $X2=0.2865 $Y2=0.1350
r18 3 12 2.66511 $w=1.29895e-07 $l=0 $layer=LIG $thickness=5.22105e-08
+ $X=0.2970 $Y=0.1350 $X2=0.2970 $Y2=0.1350
r19 3 14 0.610027 $w=2.16919e-07 $l=1.05e-08 $layer=Gate_1
+ $thickness=5.5619e-08 $X=0.2970 $Y=0.1350 $X2=0.2865 $Y2=0.1350
r20 3 15 1.79147 $w=1.8466e-07 $l=1.25e-08 $layer=LIG $thickness=5.44e-08
+ $X=0.2970 $Y=0.1350 $X2=0.3095 $Y2=0.1350
.ends

.subckt PM_AO211x2_ASAP7_75t_R%NET014 VSS 15 16 71 73 75 77 80 3 21 17 4 18 24
+ 23 5 19 6 20 27 22 26 28 1 25
c1 1 VSS 0.00853039f
c2 3 VSS 0.00635074f
c3 4 VSS 0.00732125f
c4 5 VSS 0.00706835f
c5 6 VSS 0.00462013f
c6 15 VSS 0.0811757f
c7 16 VSS 0.0808581f
c8 17 VSS 0.00433795f
c9 18 VSS 0.00450228f
c10 19 VSS 0.0044202f
c11 20 VSS 0.00420216f
c12 21 VSS 0.05937f
c13 22 VSS 0.0138926f
c14 23 VSS 0.00394192f
c15 24 VSS 0.00393104f
c16 25 VSS 0.0023374f
c17 26 VSS 0.00289822f
c18 27 VSS 0.000394746f
c19 28 VSS 0.0034956f
r1 80 79 0.0308642 $w=8.1e-08 $l=2.5e-09 $layer=P_src_drn $thickness=1e-09
+ $X=0.5570 $Y=0.2025 $X2=0.5545 $Y2=0.2025
r2 78 79 0.0555556 $w=8.1e-08 $l=4.5e-09 $layer=P_src_drn $thickness=1e-09
+ $X=0.5500 $Y=0.2025 $X2=0.5545 $Y2=0.2025
r3 6 78 0.148148 $w=8.1e-08 $l=1.2e-08 $layer=P_src_drn $thickness=1e-09
+ $X=0.5380 $Y=0.2025 $X2=0.5500 $Y2=0.2025
r4 20 6 0.154321 $w=8.1e-08 $l=1.25e-08 $layer=P_src_drn $thickness=1e-09
+ $X=0.5255 $Y=0.2025 $X2=0.5380 $Y2=0.2025
r5 77 20 0.0308642 $w=8.1e-08 $l=2.5e-09 $layer=P_src_drn $thickness=1e-09
+ $X=0.5230 $Y=0.2025 $X2=0.5255 $Y2=0.2025
r6 75 74 0.0308642 $w=8.1e-08 $l=2.5e-09 $layer=N_src_drn $thickness=1e-09
+ $X=0.1250 $Y=0.0675 $X2=0.1225 $Y2=0.0675
r7 17 74 0.179012 $w=8.1e-08 $l=1.45e-08 $layer=N_src_drn $thickness=1e-09
+ $X=0.1080 $Y=0.0675 $X2=0.1225 $Y2=0.0675
r8 18 4 0.231482 $w=5.4e-08 $l=1.25e-08 $layer=N_src_drn $thickness=1e-09
+ $X=0.3095 $Y=0.0540 $X2=0.3220 $Y2=0.0540
r9 73 18 0.0462963 $w=5.4e-08 $l=2.5e-09 $layer=N_src_drn $thickness=1e-09
+ $X=0.3070 $Y=0.0540 $X2=0.3095 $Y2=0.0540
r10 71 70 0.0462963 $w=5.4e-08 $l=2.5e-09 $layer=N_src_drn $thickness=1e-09
+ $X=0.5030 $Y=0.0540 $X2=0.5005 $Y2=0.0540
r11 19 70 0.231482 $w=5.4e-08 $l=1.25e-08 $layer=N_src_drn $thickness=1e-09
+ $X=0.4880 $Y=0.0540 $X2=0.5005 $Y2=0.0540
r12 6 68 19.3796 $w=1.8e-08 $l=1.8e-08 $layer=V0LISD $X=0.5400 $Y=0.2025
+ $X2=0.5400 $Y2=0.2340
r13 3 62 19.3796 $w=1.8e-08 $l=1.8e-08 $layer=V0LISD $X=0.1080 $Y=0.0675
+ $X2=0.1120 $Y2=0.0360
r14 4 55 19.3796 $w=1.8e-08 $l=1.8e-08 $layer=V0LISD $X=0.3240 $Y=0.0540
+ $X2=0.3240 $Y2=0.0360
r15 5 52 19.3796 $w=1.8e-08 $l=1.8e-08 $layer=V0LISD $X=0.4860 $Y=0.0540
+ $X2=0.4900 $Y2=0.0360
r16 68 69 8.97781 $w=1.3e-08 $l=3.85e-08 $layer=M1 $thickness=3.6e-08 $X=0.5400
+ $Y=0.2340 $X2=0.5785 $Y2=0.2340
r17 22 28 7.2121 $w=1.41842e-08 $l=3.8e-08 $layer=M1 $thickness=3.6e-08
+ $X=0.6370 $Y=0.2340 $X2=0.6750 $Y2=0.2340
r18 22 69 13.6416 $w=1.3e-08 $l=5.85e-08 $layer=M1 $thickness=3.6e-08 $X=0.6370
+ $Y=0.2340 $X2=0.5785 $Y2=0.2340
r19 62 63 4.31401 $w=1.3e-08 $l=1.85e-08 $layer=M1 $thickness=3.6e-08 $X=0.1120
+ $Y=0.0360 $X2=0.1305 $Y2=0.0360
r20 61 63 10.0272 $w=1.3e-08 $l=4.3e-08 $layer=M1 $thickness=3.6e-08 $X=0.1735
+ $Y=0.0360 $X2=0.1305 $Y2=0.0360
r21 60 61 8.27824 $w=1.3e-08 $l=3.55e-08 $layer=M1 $thickness=3.6e-08 $X=0.2090
+ $Y=0.0360 $X2=0.1735 $Y2=0.0360
r22 59 60 5.71315 $w=1.3e-08 $l=2.45e-08 $layer=M1 $thickness=3.6e-08 $X=0.2335
+ $Y=0.0360 $X2=0.2090 $Y2=0.0360
r23 58 59 11.1931 $w=1.3e-08 $l=4.8e-08 $layer=M1 $thickness=3.6e-08 $X=0.2815
+ $Y=0.0360 $X2=0.2335 $Y2=0.0360
r24 56 57 17.7224 $w=1.3e-08 $l=7.6e-08 $layer=M1 $thickness=3.6e-08 $X=0.4050
+ $Y=0.0360 $X2=0.4810 $Y2=0.0360
r25 55 56 18.8884 $w=1.3e-08 $l=8.1e-08 $layer=M1 $thickness=3.6e-08 $X=0.3240
+ $Y=0.0360 $X2=0.4050 $Y2=0.0360
r26 54 55 2.56509 $w=1.3e-08 $l=1.1e-08 $layer=M1 $thickness=3.6e-08 $X=0.3130
+ $Y=0.0360 $X2=0.3240 $Y2=0.0360
r27 54 58 7.34548 $w=1.3e-08 $l=3.15e-08 $layer=M1 $thickness=3.6e-08 $X=0.3130
+ $Y=0.0360 $X2=0.2815 $Y2=0.0360
r28 52 53 4.31401 $w=1.3e-08 $l=1.85e-08 $layer=M1 $thickness=3.6e-08 $X=0.4900
+ $Y=0.0360 $X2=0.5085 $Y2=0.0360
r29 52 57 2.09871 $w=1.3e-08 $l=9e-09 $layer=M1 $thickness=3.6e-08 $X=0.4900
+ $Y=0.0360 $X2=0.4810 $Y2=0.0360
r30 51 53 5.36336 $w=1.3e-08 $l=2.3e-08 $layer=M1 $thickness=3.6e-08 $X=0.5315
+ $Y=0.0360 $X2=0.5085 $Y2=0.0360
r31 50 51 10.0272 $w=1.3e-08 $l=4.3e-08 $layer=M1 $thickness=3.6e-08 $X=0.5745
+ $Y=0.0360 $X2=0.5315 $Y2=0.0360
r32 21 26 7.2121 $w=1.41842e-08 $l=3.8e-08 $layer=M1 $thickness=3.6e-08
+ $X=0.6370 $Y=0.0360 $X2=0.6750 $Y2=0.0360
r33 21 50 14.5744 $w=1.3e-08 $l=6.25e-08 $layer=M1 $thickness=3.6e-08 $X=0.6370
+ $Y=0.0360 $X2=0.5745 $Y2=0.0360
r34 28 49 2.5483 $w=1.79e-08 $l=1.8e-08 $layer=M1 $thickness=3.6e-08 $X=0.6750
+ $Y=0.2340 $X2=0.6750 $Y2=0.2160
r35 26 45 2.5483 $w=1.79e-08 $l=1.8e-08 $layer=M1 $thickness=3.6e-08 $X=0.6750
+ $Y=0.0360 $X2=0.6750 $Y2=0.0540
r36 48 49 4.19742 $w=1.3e-08 $l=1.8e-08 $layer=M1 $thickness=3.6e-08 $X=0.6750
+ $Y=0.1980 $X2=0.6750 $Y2=0.2160
r37 47 48 4.19742 $w=1.3e-08 $l=1.8e-08 $layer=M1 $thickness=3.6e-08 $X=0.6750
+ $Y=0.1800 $X2=0.6750 $Y2=0.1980
r38 46 47 4.19742 $w=1.3e-08 $l=1.8e-08 $layer=M1 $thickness=3.6e-08 $X=0.6750
+ $Y=0.1620 $X2=0.6750 $Y2=0.1800
r39 24 27 2.08435 $w=1.62143e-08 $l=1.4e-08 $layer=M1 $thickness=3.6e-08
+ $X=0.6750 $Y=0.1480 $X2=0.6750 $Y2=0.1340
r40 24 46 3.26466 $w=1.3e-08 $l=1.4e-08 $layer=M1 $thickness=3.6e-08 $X=0.6750
+ $Y=0.1480 $X2=0.6750 $Y2=0.1620
r41 44 45 4.19742 $w=1.3e-08 $l=1.8e-08 $layer=M1 $thickness=3.6e-08 $X=0.6750
+ $Y=0.0720 $X2=0.6750 $Y2=0.0540
r42 23 27 6.04857 $w=1.44516e-08 $l=3.1e-08 $layer=M1 $thickness=3.6e-08
+ $X=0.6750 $Y=0.1030 $X2=0.6750 $Y2=0.1340
r43 23 44 7.22888 $w=1.3e-08 $l=3.1e-08 $layer=M1 $thickness=3.6e-08 $X=0.6750
+ $Y=0.1030 $X2=0.6750 $Y2=0.0720
r44 16 37 3.49039 $w=1.235e-07 $l=1e-09 $layer=LIG $thickness=5.2e-08 $X=0.7830
+ $Y=0.1350 $X2=0.7830 $Y2=0.1340
r45 25 40 6.29612 $w=1.3e-08 $l=2.7e-08 $layer=M1 $thickness=3.6e-08 $X=0.7020
+ $Y=0.1340 $X2=0.7290 $Y2=0.1340
r46 25 27 5.11582 $w=1.46667e-08 $l=2.7e-08 $layer=M1 $thickness=3.6e-08
+ $X=0.7020 $Y=0.1340 $X2=0.6750 $Y2=0.1340
r47 35 37 5.66664 $w=1.866e-08 $l=1.25e-08 $layer=LIG $thickness=4.8e-08
+ $X=0.7705 $Y=0.1340 $X2=0.7830 $Y2=0.1340
r48 34 35 14.4473 $w=1.33e-08 $l=1.45e-08 $layer=LIG $thickness=4.8e-08
+ $X=0.7560 $Y=0.1340 $X2=0.7705 $Y2=0.1340
r49 33 34 14.4473 $w=1.33e-08 $l=1.45e-08 $layer=LIG $thickness=4.8e-08
+ $X=0.7415 $Y=0.1340 $X2=0.7560 $Y2=0.1340
r50 31 33 2.64971 $w=1.44167e-08 $l=3e-09 $layer=LIG $thickness=4.8e-08
+ $X=0.7385 $Y=0.1340 $X2=0.7415 $Y2=0.1340
r51 30 31 3.01694 $w=2e-08 $l=9.5e-09 $layer=LIG $thickness=4.8e-08 $X=0.7290
+ $Y=0.1340 $X2=0.7385 $Y2=0.1340
r52 30 40 19.3796 $w=1.8e-08 $l=1.8e-08 $layer=V0LIG $X=0.7290 $Y=0.1340
+ $X2=0.7290 $Y2=0.1340
r53 1 30 3.01694 $w=2e-08 $l=9.5e-09 $layer=LIG $thickness=4.8e-08 $X=0.7195
+ $Y=0.1340 $X2=0.7290 $Y2=0.1340
r54 1 32 0.65697 $w=1.665e-08 $l=1e-09 $layer=LIG $thickness=4.8e-08 $X=0.7195
+ $Y=0.1340 $X2=0.7185 $Y2=0.1340
r55 15 30 3.17282 $w=1.28947e-07 $l=1e-09 $layer=LIG $thickness=5.22105e-08
+ $X=0.7290 $Y=0.1350 $X2=0.7290 $Y2=0.1340
r56 15 32 0.812849 $w=2.16824e-07 $l=1.05475e-08 $layer=LIG
+ $thickness=5.5619e-08 $X=0.7290 $Y=0.1350 $X2=0.7185 $Y2=0.1340
r57 15 33 2.80558 $w=1.8426e-07 $l=1.25399e-08 $layer=LIG $thickness=5.44e-08
+ $X=0.7290 $Y=0.1350 $X2=0.7415 $Y2=0.1340
r58 3 17 1e-05
r59 5 19 1e-05
.ends


*
.SUBCKT AO211x2_ASAP7_75t_R VSS VDD A1 A2 B C Y
*
* VSS VSS
* VDD VDD
* A1 A1
* A2 A2
* B B
* C C
* Y Y
*
*

MM24 N_MM24_d N_MM24_g N_MM24_s VSS nmos_rvt L=2e-08 W=8.1e-08 nfin=3
MM2 N_MM2_d N_MM2_g VSS VSS nmos_rvt L=2e-08 W=8.1e-08 nfin=3
MM3 N_MM3_d N_MM5_g VSS VSS nmos_rvt L=2e-08 W=5.4e-08 nfin=2
MM4 N_MM4_d N_MM6_g VSS VSS nmos_rvt L=2e-08 W=5.4e-08 nfin=2
MM8 N_MM8_d N_MM7_g VSS VSS nmos_rvt L=2e-08 W=8.1e-08 nfin=3
MM8@2 N_MM8@2_d N_MM7@2_g VSS VSS nmos_rvt L=2e-08 W=8.1e-08 nfin=3
MM25 N_MM25_d N_MM25_g VDD VDD pmos_rvt L=2e-08 W=8.1e-08 nfin=3
MM25@2 N_MM25@2_d N_MM24_g VDD VDD pmos_rvt L=2e-08 W=8.1e-08 nfin=3
MM1 N_MM1_d N_MM2_g VDD VDD pmos_rvt L=2e-08 W=8.1e-08 nfin=3
MM1@2 N_MM1@2_d N_MM1@2_g VDD VDD pmos_rvt L=2e-08 W=8.1e-08 nfin=3
MM5 N_MM5_d N_MM5_g N_MM5_s VDD pmos_rvt L=2e-08 W=8.1e-08 nfin=3
MM5@2 N_MM5@2_d N_MM5@2_g N_MM5@2_s VDD pmos_rvt L=2e-08 W=8.1e-08 nfin=3
MM6 N_MM6_d N_MM6_g N_MM6_s VDD pmos_rvt L=2e-08 W=8.1e-08 nfin=3
MM6@2 N_MM6@2_d N_MM6@2_g N_MM6@2_s VDD pmos_rvt L=2e-08 W=8.1e-08 nfin=3
MM7 N_MM7_d N_MM7_g VDD VDD pmos_rvt L=2e-08 W=8.1e-08 nfin=3
MM7@2 N_MM7@2_d N_MM7@2_g VDD VDD pmos_rvt L=2e-08 W=8.1e-08 nfin=3


*include "AO211x2_ASAP7_75t_R.pex.netlist.pxi"
*BEGIN of ".include "AO211x2_ASAP7_75t_R.pex.netlist.pxi"

*ENDS
*
x_PM_AO211x2_ASAP7_75t_R%noxref_19 VSS N_noxref_19_1
+ PM_AO211x2_ASAP7_75t_R%noxref_19
cc_1 N_noxref_19_1 N_MM6@2_g 0.00155879f
cc_2 N_noxref_19_1 N_NET22_12 0.0360078f
cc_3 N_noxref_19_1 N_noxref_18_1 0.00137616f
x_PM_AO211x2_ASAP7_75t_R%NET23 VSS N_MM24_s N_MM2_d N_NET23_1
+ PM_AO211x2_ASAP7_75t_R%NET23
cc_4 N_NET23_1 N_MM24_g 0.0172721f
cc_5 N_NET23_1 N_MM2_g 0.0173827f
x_PM_AO211x2_ASAP7_75t_R%noxref_15 VSS N_noxref_15_1
+ PM_AO211x2_ASAP7_75t_R%noxref_15
cc_6 N_noxref_15_1 N_MM5@2_g 0.00155091f
cc_7 N_noxref_15_1 N_NET20_16 0.0358597f
cc_8 N_noxref_15_1 N_NET22_10 0.000818016f
cc_9 N_noxref_15_1 N_noxref_14_1 0.00137891f
x_PM_AO211x2_ASAP7_75t_R%noxref_13 VSS N_noxref_13_1
+ PM_AO211x2_ASAP7_75t_R%noxref_13
cc_10 N_noxref_13_1 N_MM25_g 0.00242698f
cc_11 N_noxref_13_1 N_NET20_13 0.0363901f
cc_12 N_noxref_13_1 N_noxref_12_1 0.00191982f
x_PM_AO211x2_ASAP7_75t_R%noxref_17 VSS N_noxref_17_1
+ PM_AO211x2_ASAP7_75t_R%noxref_17
cc_13 N_noxref_17_1 N_MM6_g 0.00156627f
cc_14 N_noxref_17_1 N_NET20_16 0.000544181f